                                   MODFLOW 6
                U.S. GEOLOGICAL SURVEY MODULAR HYDROLOGIC MODEL
                          GROUNDWATER FLOW MODEL (GWF)
                            VERSION 6.2.0 10/22/2020

   MODFLOW 6 compiled Oct 22 2020 09:26:42 with IFORT compiler (ver. 19.10.2)

This software has been approved for release by the U.S. Geological 
Survey (USGS). Although the software has been subjected to rigorous 
review, the USGS reserves the right to update the software as needed 
pursuant to further analysis and review. No warranty, expressed or 
implied, is made by the USGS or the U.S. Government as to the 
functionality of the software and related material nor shall the 
fact of release constitute any such warranty. Furthermore, the 
software is released on condition that neither the USGS nor the U.S. 
Government shall be held liable for any damages resulting from its 
authorized or unauthorized use. Also refer to the USGS Water 
Resources Software User Rights Notice for complete use, copyright, 
and distribution information.


System command used to initiate simulation:
"C:/Users/Lenovo/Desktop/Diapositivas PyS/DIPLOMADO/mf6.2.0/bin/mf6"

MODFLOW was compiled using uniform precision.

Real Variables
  KIND: 8
  TINY (smallest non-zero value):    2.225074-308
  HUGE (largest value):    1.797693+308
  PRECISION: 15
  BIT SIZE: 64

Integer Variables
  KIND: 4
  HUGE (largest value): 2147483647
  BIT SIZE: 32

Long Integer Variables
  KIND: 8
  HUGE (largest value): 9223372036854775807
  BIT SIZE: 64

Logical Variables
  KIND: 4
  BIT SIZE: 32
 

 OPENED mymodel.dis
 FILE TYPE:DIS6                   UNIT 1005   STATUS:OLD                 
 FORMAT:FORMATTED              ACCESS:SEQUENTIAL          
 ACTION:READ                


 OPENED mymodel.ic
 FILE TYPE:IC6                    UNIT 1006   STATUS:OLD                 
 FORMAT:FORMATTED              ACCESS:SEQUENTIAL          
 ACTION:READ                


 OPENED mymodel.riv
 FILE TYPE:RIV6                   UNIT 1007   STATUS:OLD                 
 FORMAT:FORMATTED              ACCESS:SEQUENTIAL          
 ACTION:READ                


 OPENED mymodel.npf
 FILE TYPE:NPF6                   UNIT 1008   STATUS:OLD                 
 FORMAT:FORMATTED              ACCESS:SEQUENTIAL          
 ACTION:READ                


 OPENED mymodel.chd
 FILE TYPE:CHD6                   UNIT 1009   STATUS:OLD                 
 FORMAT:FORMATTED              ACCESS:SEQUENTIAL          
 ACTION:READ                


 OPENED mymodel.oc
 FILE TYPE:OC6                    UNIT 1010   STATUS:OLD                 
 FORMAT:FORMATTED              ACCESS:SEQUENTIAL          
 ACTION:READ                

 NAMEFILE OPTIONS:
    FLOWS WILL BE SAVED TO BUDGET FILE SPECIFIED IN OUTPUT CONTROL

 DIS -- STRUCTURED GRID DISCRETIZATION PACKAGE, VERSION 2 : 3/27/2014 - INPUT READ FROM UNIT 1005


 # File generated by Flopy version 3.3.2 on 02/04/2021 at 16:44:32.
 PROCESSING DISCRETIZATION OPTIONS
 END OF DISCRETIZATION OPTIONS
 MODEL LENGTH UNIT IS UNDEFINED
 PROCESSING DISCRETIZATION DIMENSIONS
    NLAY =       1
    NROW =      10
    NCOL =      10
 END OF DISCRETIZATION DIMENSIONS
 PROCESSING GRIDDATA

                     DELR =   1.000000    

                     DELC =   1.000000    

 TOP ELEVATION OF LAYER 1 =   1.000000    

   MODEL LAYER BOTTOM EL. =   0.000000    
 END PROCESSING GRIDDATA

 NPF -- NODE PROPERTY FLOW PACKAGE, VERSION 1, 3/30/2015 INPUT READ FROM UNIT 1008


 # File generated by Flopy version 3.3.2 on 02/04/2021 at 16:44:32.
 PROCESSING NPF OPTIONS
    SPECIFIC DISCHARGE WILL BE CALCULATED AT CELL CENTERS AND WRITTEN TO DATA-SPDIS IN BUDGET FILE WHEN REQUESTED.
 END OF NPF OPTIONS

 RIV   -- RIV PACKAGE, VERSION 8, 2/22/2014 INPUT READ FROM UNIT 1007
 # File generated by Flopy version 3.3.2 on 02/04/2021 at 16:44:32.

 PROCESSING RIV OPTIONS
    RIV BOUNDARIES HAVE NAMES IN LAST COLUMN.
    LISTS OF RIV CELLS WILL BE PRINTED.
    RIV FLOWS WILL BE PRINTED TO LISTING FILE.
    FLOWS WILL BE SAVED TO BUDGET FILE SPECIFIED IN OUTPUT CONTROL
    TIME-SERIES DATA WILL BE READ FROM FILE: river_stages.ts
 # File generated by Flopy version 3.3.2 on 02/04/2021 at 16:44:32.

 OPENED mymodel.riv.obs
 FILE TYPE:OBS   UNIT 1013   STATUS:OLD                 
 FORMAT:FORMATTED              ACCESS:SEQUENTIAL          
 ACTION:READ                

 END OF RIV OPTIONS

 PROCESSING RIV DIMENSIONS
    MAXBOUND =      20
 END OF RIV DIMENSIONS

 CHD   -- CHD PACKAGE, VERSION 8, 2/22/2014 INPUT READ FROM UNIT 1009
 # File generated by Flopy version 3.3.2 on 02/04/2021 at 16:44:32.

 PROCESSING CHD OPTIONS
 END OF CHD OPTIONS

 PROCESSING CHD DIMENSIONS
    MAXBOUND =       2
 END OF CHD DIMENSIONS

 IC -- INITIAL CONDITIONS PACKAGE, VERSION 8, 3/28/2015 INPUT READ FROM UNIT 1006
 # File generated by Flopy version 3.3.2 on 02/04/2021 at 16:44:32.
 PROCESSING GRIDDATA

     INITIAL HEAD =   1.000000    
 END PROCESSING GRIDDATA
 PROCESSING GRIDDATA

                ICELLTYPE = 0

                        K =   1.000000    
 K33 not provided.  Assuming K33 = K.
 K22 not provided.  Assuming K22 = K.
 END PROCESSING GRIDDATA
    BINARY GRID INFORMATION WILL BE WRITTEN TO:
      UNIT NUMBER: 1014
      FILE NAME: C:\Users\Lenovo\Slendy\EjmploFlopy\mymodel\mymodel.dis.grb

 OPENED C:\Users\Lenovo\Slendy\EjmploFlopy\mymodel\mymodel.dis.grb
 FILE TYPE:DATA(BINARY)   UNIT 1014   STATUS:REPLACE             
 FORMAT:UNFORMATTED            ACCESS:STREAM              
 ACTION:READWRITE           

      THE LAST TIME STEP WILL BE PRINTED
      THE LAST TIME STEP WILL BE PRINTED
 # File generated by Flopy version 3.3.2 on 02/04/2021 at 16:44:32.

 PROCESSING OC OPTIONS

    BUDGET INFORMATION WILL BE WRITTEN TO:
      UNIT NUMBER: 1015
      FILE NAME: mymodel.bud

 OPENED mymodel.bud
 FILE TYPE:DATA(BINARY)   UNIT 1015   STATUS:REPLACE             
 FORMAT:UNFORMATTED            ACCESS:STREAM              
 ACTION:READWRITE           

    HEAD INFORMATION WILL BE WRITTEN TO:
      UNIT NUMBER: 1016
      FILE NAME: mymodel.hds

 OPENED mymodel.hds
 FILE TYPE:DATA(BINARY)   UNIT 1016   STATUS:REPLACE             
 FORMAT:UNFORMATTED            ACCESS:STREAM              
 ACTION:READWRITE           

 END OF OC OPTIONS

The observation utility is active for "RIV"
 # File generated by Flopy version 3.3.2 on 02/04/2021 at 16:44:32.

Processing observation options:

Text output number of digits of precision set to: 10
The PRINT_INPUT option has been specified.


 OBSERVATIONS READ FROM FILE "mymodel.riv.obs"
 ----------------------------------------------------------------------------------------------------------------------------------------------------------------------------------------------------------------------------
 NAME                                     TYPE                                       TIME         LOCATION DATA                              OUTPUT FILENAME                                                                 
 ----------------------------------------------------------------------------------------------------------------------------------------------------------------------------------------------------------------------------
 RV1-3-1                                  CONTINUOUS  RIV                            ALL TIMES    "1 3 1"                                    riv_obs.csv                                                                     
 RV1-4-2                                  CONTINUOUS  RIV                            ALL TIMES    "1 4 2"                                    riv_obs.csv                                                                     
 RV1-5-3                                  CONTINUOUS  RIV                            ALL TIMES    "1 5 3"                                    riv_obs.csv                                                                     
 RV1-5-4                                  CONTINUOUS  RIV                            ALL TIMES    "1 5 4"                                    riv_obs.csv                                                                     
 RV1-6-5                                  CONTINUOUS  RIV                            ALL TIMES    "1 6 5"                                    riv_obs.csv                                                                     
 RV1-C6                                   CONTINUOUS  RIV                            ALL TIMES    "RIV1_C6"                                  riv_obs.csv                                                                     
 RV1-C7                                   CONTINUOUS  RIV                            ALL TIMES    "RIV1_C7"                                  riv_obs.csv                                                                     
 RV2-UPPER                                CONTINUOUS  RIV                            ALL TIMES    "RIV2_UPPER"                               riv_obs.csv                                                                     
 RV-2-7-4                                 CONTINUOUS  RIV                            ALL TIMES    "1 7 4"                                    riv_obs.csv                                                                     
 RV2-8-5                                  CONTINUOUS  RIV                            ALL TIMES    "1 7 5"                                    riv_obs.csv                                                                     
 RV-2-9-6                                 CONTINUOUS  RIV                            ALL TIMES    "1 6 6"                                    riv_obs.csv                                                                     
 RIV1-3-1                                 CONTINUOUS  RIV                            ALL TIMES    "1 3 1"                                    riv_flowsA.csv                                                                  
 RIV1-4-2                                 CONTINUOUS  RIV                            ALL TIMES    "1 4 2"                                    riv_flowsA.csv                                                                  
 RIV1-5-3                                 CONTINUOUS  RIV                            ALL TIMES    "1 5 3"                                    riv_flowsA.csv                                                                  
 RIV2-10-1                                CONTINUOUS  RIV                            ALL TIMES    "1 10 1"                                   riv_flowsB.csv                                                                  
 RIV-2-9-2                                CONTINUOUS  RIV                            ALL TIMES    "1 9 2"                                    riv_flowsB.csv                                                                  
 RIV2-8-3                                 CONTINUOUS  RIV                            ALL TIMES    "1 8 3"                                    riv_flowsB.csv                                                                  
 ----------------------------------------------------------------------------------------------------------------------------------------------------------------------------------------------------------------------------



start timestep kper="1" kstp="1" mode="normal"


 BEGIN READING OUTPUT CONTROL FOR STRESS PERIOD 1
      ALL TIME STEPS WILL BE SAVED
      ALL TIME STEPS WILL BE SAVED

 END READING OUTPUT CONTROL FOR STRESS PERIOD 1
 ------------------------------------------------------------------------------------------------------------------------------
  RIV NO.    LAYER    ROW     COL        STAGE         CONDUCTANCE       BOTTOM EL.    BOUNDNAME                               
 ------------------------------------------------------------------------------------------------------------------------------
     1         1       3       1     40.5000000       1001.00000       35.9000000                                              
     2         1       4       2     40.5000000       1002.00000       35.8000000                                              
     3         1       5       3     40.5000000       1003.00000       35.7000000                                              
     4         1       5       4     40.5000000       1004.00000       35.6000000                                              
     5         1       6       5     40.5000000       1005.00000       35.5000000                                              
     6         1       6       6     40.5000000       1006.00000       35.4000000      RIV1_C6                                 
     7         1       6       7     40.5000000       1007.00000       35.3000000      RIV1_C7                                 
     8         1       5       8     40.5000000       1008.00000       35.2000000                                              
     9         1       5       9     40.5000000       1009.00000       35.1000000                                              
     10        1       5      10     40.5000000       1010.00000       35.0000000                                              
     11        1      10       1     41.0000000       1001.00000       36.9000000      RIV2_UPPER                              
     12        1       9       2     41.0000000       1002.00000       36.8000000      RIV2_UPPER                              
     13        1       8       3     41.0000000       1003.00000       36.7000000      RIV2_UPPER                              
     14        1       7       4     41.0000000       1004.00000       36.6000000                                              
     15        1       7       5     41.0000000       1005.00000       36.5000000                                              
     16        1       6       6     41.0000000       1006.00000       36.4000000      RIV2_C6                                 
     17        1       6       7     41.0000000       1007.00000       36.3000000      RIV2_C7                                 
     18        1       7       8     41.0000000       1008.00000       36.2000000                                              
     19        1       7       9     41.0000000       1009.00000       36.1000000                                              
     20        1       7      10     41.0000000       1010.00000       36.0000000                                              
 ------------------------------------------------------------------------------------------------------------------------------



Time-series controlled values in stress period: 1, time step 1:
"RIV" package: Boundary 1, STAGE value from time series "RIVER_STAGE_1" =   40.500    
"RIV" package: Boundary 2, STAGE value from time series "RIVER_STAGE_1" =   40.500    
"RIV" package: Boundary 3, STAGE value from time series "RIVER_STAGE_1" =   40.500    
"RIV" package: Boundary 4, STAGE value from time series "RIVER_STAGE_1" =   40.500    
"RIV" package: Boundary 5, STAGE value from time series "RIVER_STAGE_1" =   40.500    
"RIV" package: Boundary 6, STAGE value from time series "RIVER_STAGE_1" =   40.500     (RIV1_C6)
"RIV" package: Boundary 7, STAGE value from time series "RIVER_STAGE_1" =   40.500     (RIV1_C7)
"RIV" package: Boundary 8, STAGE value from time series "RIVER_STAGE_1" =   40.500    
"RIV" package: Boundary 9, STAGE value from time series "RIVER_STAGE_1" =   40.500    
"RIV" package: Boundary 10, STAGE value from time series "RIVER_STAGE_1" =   40.500    
"RIV" package: Boundary 11, STAGE value from time series "RIVER_STAGE_2" =   41.000     (RIV2_UPPER)
"RIV" package: Boundary 12, STAGE value from time series "RIVER_STAGE_2" =   41.000     (RIV2_UPPER)
"RIV" package: Boundary 13, STAGE value from time series "RIVER_STAGE_2" =   41.000     (RIV2_UPPER)
"RIV" package: Boundary 14, STAGE value from time series "RIVER_STAGE_2" =   41.000    
"RIV" package: Boundary 15, STAGE value from time series "RIVER_STAGE_2" =   41.000    
"RIV" package: Boundary 16, STAGE value from time series "RIVER_STAGE_2" =   41.000     (RIV2_C6)
"RIV" package: Boundary 17, STAGE value from time series "RIVER_STAGE_2" =   41.000     (RIV2_C7)
"RIV" package: Boundary 18, STAGE value from time series "RIVER_STAGE_2" =   41.000    
"RIV" package: Boundary 19, STAGE value from time series "RIVER_STAGE_2" =   41.000    
"RIV" package: Boundary 20, STAGE value from time series "RIVER_STAGE_2" =   41.000    

 UBDSV1 SAVING     FLOW-JA-FACE ON UNIT   1015 AT TIME STEP      1, STRESS PERIOD      1
 UBDSV06 SAVING       DATA-SPDIS IN MODEL MYMODEL          PACKAGE NPF             CONNECTED TO MODEL MYMODEL          PACKAGE NPF              ON UNIT   1015 AT TIME STEP      1, STRESS PERIOD      1
 UBDSV06 SAVING              RIV IN MODEL MYMODEL          PACKAGE MYMODEL         CONNECTED TO MODEL MYMODEL          PACKAGE RIV              ON UNIT   1015 AT TIME STEP      1, STRESS PERIOD      1
 UBDSV06 SAVING              CHD IN MODEL MYMODEL          PACKAGE MYMODEL         CONNECTED TO MODEL MYMODEL          PACKAGE CHD_0            ON UNIT   1015 AT TIME STEP      1, STRESS PERIOD      1

 HEAD WILL BE SAVED ON UNIT 1016 AT END OF TIME STEP    1, STRESS PERIOD    1


  VOLUME BUDGET FOR ENTIRE MODEL AT END OF TIME STEP    1, STRESS PERIOD   1
  ---------------------------------------------------------------------------------------------------

     CUMULATIVE VOLUME      L**3       RATES FOR THIS TIME STEP      L**3/T          PACKAGE NAME    
     ------------------                 ------------------------                     ----------------

           IN:                                      IN:
           ---                                      ---
                 RIV =         575.4674                   RIV =         575.4674     RIV             
                 CHD =           0.0000                   CHD =           0.0000     CHD_0           

            TOTAL IN =         575.4674              TOTAL IN =         575.4674

          OUT:                                     OUT:
          ----                                     ----
                 RIV =         501.4398                   RIV =         501.4398     RIV             
                 CHD =          74.0275                   CHD =          74.0275     CHD_0           

           TOTAL OUT =         575.4674             TOTAL OUT =         575.4674

            IN - OUT =      -2.5661E-06              IN - OUT =      -2.5661E-06

 PERCENT DISCREPANCY =          -0.00     PERCENT DISCREPANCY =          -0.00




         TIME SUMMARY AT END OF TIME STEP    1 IN STRESS PERIOD    1
                          TIME STEP LENGTH =    1.00000    
                        STRESS PERIOD TIME =    1.00000    
                     TOTAL SIMULATION TIME =    1.00000    

end timestep

