                                   MODFLOW 6
                U.S. GEOLOGICAL SURVEY MODULAR HYDROLOGIC MODEL
                          GROUNDWATER FLOW MODEL (GWF)
                            VERSION 6.2.0 10/22/2020

   MODFLOW 6 compiled Oct 22 2020 09:26:42 with IFORT compiler (ver. 19.10.2)

This software has been approved for release by the U.S. Geological 
Survey (USGS). Although the software has been subjected to rigorous 
review, the USGS reserves the right to update the software as needed 
pursuant to further analysis and review. No warranty, expressed or 
implied, is made by the USGS or the U.S. Government as to the 
functionality of the software and related material nor shall the 
fact of release constitute any such warranty. Furthermore, the 
software is released on condition that neither the USGS nor the U.S. 
Government shall be held liable for any damages resulting from its 
authorized or unauthorized use. Also refer to the USGS Water 
Resources Software User Rights Notice for complete use, copyright, 
and distribution information.


System command used to initiate simulation:
"C:/WRDAPP/mf6.2.0 (1)/mf6.2.0/bin/mf6"

MODFLOW was compiled using uniform precision.

Real Variables
  KIND: 8
  TINY (smallest non-zero value):    2.225074-308
  HUGE (largest value):    1.797693+308
  PRECISION: 15
  BIT SIZE: 64

Integer Variables
  KIND: 4
  HUGE (largest value): 2147483647
  BIT SIZE: 32

Long Integer Variables
  KIND: 8
  HUGE (largest value): 9223372036854775807
  BIT SIZE: 64

Logical Variables
  KIND: 4
  BIT SIZE: 32
 

 OPENED Ejercicio_01_1.dis
 FILE TYPE:DIS6                   UNIT 1005   STATUS:OLD                 
 FORMAT:FORMATTED              ACCESS:SEQUENTIAL          
 ACTION:READ                


 OPENED Ejercicio_01_1.ic
 FILE TYPE:IC6                    UNIT 1006   STATUS:OLD                 
 FORMAT:FORMATTED              ACCESS:SEQUENTIAL          
 ACTION:READ                


 OPENED Ejercicio_01_1.npf
 FILE TYPE:NPF6                   UNIT 1007   STATUS:OLD                 
 FORMAT:FORMATTED              ACCESS:SEQUENTIAL          
 ACTION:READ                


 OPENED Ejercicio_01_1.chd
 FILE TYPE:CHD6                   UNIT 1008   STATUS:OLD                 
 FORMAT:FORMATTED              ACCESS:SEQUENTIAL          
 ACTION:READ                


 OPENED Ejercicio_01_1.oc
 FILE TYPE:OC6                    UNIT 1009   STATUS:OLD                 
 FORMAT:FORMATTED              ACCESS:SEQUENTIAL          
 ACTION:READ                


 DIS -- STRUCTURED GRID DISCRETIZATION PACKAGE, VERSION 2 : 3/27/2014 - INPUT READ FROM UNIT 1005


 # File generated by Flopy version 3.3.2 on 01/29/2021 at 11:34:09.
 PROCESSING DISCRETIZATION OPTIONS
 END OF DISCRETIZATION OPTIONS
 MODEL LENGTH UNIT IS UNDEFINED
 PROCESSING DISCRETIZATION DIMENSIONS
    NLAY =      10
    NROW =     101
    NCOL =     101
 END OF DISCRETIZATION DIMENSIONS
 PROCESSING GRIDDATA

                     DELR =   4.000000    

                     DELC =   4.000000    

 TOP ELEVATION OF LAYER 1 =   0.000000    

   MODEL LAYER BOTTOM EL. =  -5.000000     FOR LAYER 1

   MODEL LAYER BOTTOM EL. =  -10.00000     FOR LAYER 2

   MODEL LAYER BOTTOM EL. =  -15.00000     FOR LAYER 3

   MODEL LAYER BOTTOM EL. =  -20.00000     FOR LAYER 4

   MODEL LAYER BOTTOM EL. =  -25.00000     FOR LAYER 5

   MODEL LAYER BOTTOM EL. =  -30.00000     FOR LAYER 6

   MODEL LAYER BOTTOM EL. =  -35.00000     FOR LAYER 7

   MODEL LAYER BOTTOM EL. =  -40.00000     FOR LAYER 8

   MODEL LAYER BOTTOM EL. =  -45.00000     FOR LAYER 9

   MODEL LAYER BOTTOM EL. =  -50.00000     FOR LAYER 10
 END PROCESSING GRIDDATA

 NPF -- NODE PROPERTY FLOW PACKAGE, VERSION 1, 3/30/2015 INPUT READ FROM UNIT 1007


 # File generated by Flopy version 3.3.2 on 01/29/2021 at 11:34:10.
 PROCESSING NPF OPTIONS
    CELL-BY-CELL FLOW INFORMATION WILL BE SAVED TO BINARY FILE WHENEVER ICBCFL IS NOT ZERO.
 END OF NPF OPTIONS

 CHD   -- CHD PACKAGE, VERSION 8, 2/22/2014 INPUT READ FROM UNIT 1008
 # File generated by Flopy version 3.3.2 on 01/29/2021 at 11:34:11.

 PROCESSING CHD OPTIONS
    FLOWS WILL BE SAVED TO BUDGET FILE SPECIFIED IN OUTPUT CONTROL
 END OF CHD OPTIONS

 PROCESSING CHD DIMENSIONS
    MAXBOUND =    4001
 END OF CHD DIMENSIONS

 IC -- INITIAL CONDITIONS PACKAGE, VERSION 8, 3/28/2015 INPUT READ FROM UNIT 1006
 # File generated by Flopy version 3.3.2 on 01/29/2021 at 11:34:09.
 PROCESSING GRIDDATA
 END PROCESSING GRIDDATA
 PROCESSING GRIDDATA

                ICELLTYPE = 1
 K33 not provided.  Assuming K33 = K.
 K22 not provided.  Assuming K22 = K.
 END PROCESSING GRIDDATA
    BINARY GRID INFORMATION WILL BE WRITTEN TO:
      UNIT NUMBER: 1011
      FILE NAME: C:\GIT\Workspace\Ejercicio_01_1.dis.grb

 OPENED C:\GIT\Workspace\Ejercicio_01_1.dis.grb
 FILE TYPE:DATA(BINARY)   UNIT 1011   STATUS:REPLACE             
 FORMAT:UNFORMATTED            ACCESS:STREAM              
 ACTION:READWRITE           

      THE LAST TIME STEP WILL BE PRINTED
      THE LAST TIME STEP WILL BE PRINTED
 # File generated by Flopy version 3.3.2 on 01/29/2021 at 11:34:11.

 PROCESSING OC OPTIONS

    BUDGET INFORMATION WILL BE WRITTEN TO:
      UNIT NUMBER: 1012
      FILE NAME: Ejercicio_01_1.cbb

 OPENED Ejercicio_01_1.cbb
 FILE TYPE:DATA(BINARY)   UNIT 1012   STATUS:REPLACE             
 FORMAT:UNFORMATTED            ACCESS:STREAM              
 ACTION:READWRITE           

    HEAD INFORMATION WILL BE WRITTEN TO:
      UNIT NUMBER: 1013
      FILE NAME: Ejercicio_01_1.hds

 OPENED Ejercicio_01_1.hds
 FILE TYPE:DATA(BINARY)   UNIT 1013   STATUS:REPLACE             
 FORMAT:UNFORMATTED            ACCESS:STREAM              
 ACTION:READWRITE           

 END OF OC OPTIONS

start timestep kper="1" kstp="1" mode="normal"


 BEGIN READING OUTPUT CONTROL FOR STRESS PERIOD 1
      ALL TIME STEPS WILL BE SAVED
      ALL TIME STEPS WILL BE SAVED
      THE LAST TIME STEP WILL BE PRINTED

 END READING OUTPUT CONTROL FOR STRESS PERIOD 1
 UBDSV1 SAVING     FLOW-JA-FACE ON UNIT   1012 AT TIME STEP      1, STRESS PERIOD      1
 UBDSV06 SAVING              CHD IN MODEL EJERCICIO_01_1   PACKAGE EJERCICIO_01_1  CONNECTED TO MODEL EJERCICIO_01_1   PACKAGE CHD_0            ON UNIT   1012 AT TIME STEP      1, STRESS PERIOD      1
1
  HEAD IN LAYER   1 AT END OF TIME STEP   1 IN STRESS PERIOD    1
  ---------------------------------------------------------------------------

            1           2           3           4           5           6           7           8           9          10
           11          12          13          14          15          16          17          18          19          20
           21          22          23          24          25          26          27          28          29          30
           31          32          33          34          35          36          37          38          39          40
           41          42          43          44          45          46          47          48          49          50
           51          52          53          54          55          56          57          58          59          60
           61          62          63          64          65          66          67          68          69          70
           71          72          73          74          75          76          77          78          79          80
           81          82          83          84          85          86          87          88          89          90
           91          92          93          94          95          96          97          98          99         100
          101
 ........................................................................................................................
   1    100.0       100.0       100.0       100.0       100.0       100.0       100.0       100.0       100.0       100.0    
        100.0       100.0       100.0       100.0       100.0       100.0       100.0       100.0       100.0       100.0    
        100.0       100.0       100.0       100.0       100.0       100.0       100.0       100.0       100.0       100.0    
        100.0       100.0       100.0       100.0       100.0       100.0       100.0       100.0       100.0       100.0    
        100.0       100.0       100.0       100.0       100.0       100.0       100.0       100.0       100.0       100.0    
        100.0       100.0       100.0       100.0       100.0       100.0       100.0       100.0       100.0       100.0    
        100.0       100.0       100.0       100.0       100.0       100.0       100.0       100.0       100.0       100.0    
        100.0       100.0       100.0       100.0       100.0       100.0       100.0       100.0       100.0       100.0    
        100.0       100.0       100.0       100.0       100.0       100.0       100.0       100.0       100.0       100.0    
        100.0       100.0       100.0       100.0       100.0       100.0       100.0       100.0       100.0       100.0    
        100.0    
   2    100.0      100.00       99.99       99.99       99.98       99.98       99.98       99.97       99.97       99.97    
        99.96       99.96       99.95       99.95       99.95       99.94       99.94       99.94       99.93       99.93    
        99.93       99.93       99.92       99.92       99.92       99.92       99.92       99.92       99.92       99.92    
        99.93       99.93       99.93       99.93       99.93       99.94       99.94       99.94       99.94       99.95    
        99.95       99.95       99.96       99.96       99.96       99.96       99.96       99.97       99.97       99.97    
        99.97       99.97       99.98       99.98       99.98       99.98       99.98       99.98       99.98       99.99    
        99.99       99.99       99.99       99.99       99.99       99.99       99.99       99.99       99.99       99.99    
        99.99       99.99       99.99       99.99       99.99      100.00      100.00      100.00      100.00      100.00    
       100.00      100.00      100.00      100.00      100.00      100.00      100.00      100.00      100.00      100.00    
       100.00      100.00      100.00      100.00      100.00      100.00      100.00      100.00      100.00      100.00    
        100.0    
   3    100.0       99.99       99.98       99.98       99.97       99.96       99.95       99.95       99.94       99.93    
        99.92       99.92       99.91       99.90       99.89       99.89       99.88       99.87       99.87       99.86    
        99.86       99.85       99.85       99.85       99.84       99.84       99.84       99.84       99.84       99.85    
        99.85       99.85       99.86       99.86       99.87       99.87       99.88       99.88       99.89       99.89    
        99.90       99.90       99.91       99.92       99.92       99.93       99.93       99.93       99.94       99.94    
        99.95       99.95       99.95       99.96       99.96       99.96       99.96       99.97       99.97       99.97    
        99.97       99.97       99.98       99.98       99.98       99.98       99.98       99.98       99.98       99.99    
        99.99       99.99       99.99       99.99       99.99       99.99       99.99       99.99       99.99       99.99    
        99.99       99.99       99.99       99.99      100.00      100.00      100.00      100.00      100.00      100.00    
       100.00      100.00      100.00      100.00      100.00      100.00      100.00      100.00      100.00      100.00    
        100.0    
   4    100.0       99.99       99.98       99.97       99.95       99.94       99.93       99.92       99.91       99.90    
        99.89       99.87       99.86       99.85       99.84       99.83       99.82       99.81       99.80       99.79    
        99.78       99.78       99.77       99.77       99.76       99.76       99.76       99.76       99.77       99.77    
        99.77       99.78       99.78       99.79       99.80       99.81       99.82       99.82       99.83       99.84    
        99.85       99.86       99.87       99.87       99.88       99.89       99.89       99.90       99.91       99.91    
        99.92       99.92       99.93       99.93       99.94       99.94       99.95       99.95       99.95       99.96    
        99.96       99.96       99.96       99.97       99.97       99.97       99.97       99.97       99.98       99.98    
        99.98       99.98       99.98       99.98       99.98       99.99       99.99       99.99       99.99       99.99    
        99.99       99.99       99.99       99.99       99.99       99.99       99.99       99.99       99.99      100.00    
       100.00      100.00      100.00      100.00      100.00      100.00      100.00      100.00      100.00      100.00    
        100.0    
   5    100.0       99.98       99.97       99.95       99.94       99.92       99.91       99.89       99.88       99.86    
        99.85       99.83       99.82       99.80       99.79       99.77       99.76       99.74       99.73       99.72    
        99.71       99.70       99.69       99.69       99.68       99.68       99.68       99.68       99.68       99.69    
        99.70       99.70       99.71       99.72       99.73       99.74       99.75       99.76       99.78       99.79    
        99.80       99.81       99.82       99.83       99.84       99.85       99.86       99.87       99.88       99.89    
        99.89       99.90       99.91       99.91       99.92       99.92       99.93       99.93       99.94       99.94    
        99.95       99.95       99.95       99.96       99.96       99.96       99.96       99.97       99.97       99.97    
        99.97       99.97       99.98       99.98       99.98       99.98       99.98       99.98       99.98       99.99    
        99.99       99.99       99.99       99.99       99.99       99.99       99.99       99.99       99.99       99.99    
        99.99       99.99      100.00      100.00      100.00      100.00      100.00      100.00      100.00      100.00    
        100.0    
   6    100.0       99.98       99.96       99.94       99.92       99.90       99.89       99.87       99.85       99.83    
        99.81       99.79       99.77       99.75       99.73       99.71       99.69       99.68       99.66       99.65    
        99.63       99.62       99.61       99.60       99.60       99.60       99.60       99.60       99.60       99.61    
        99.62       99.62       99.64       99.65       99.66       99.67       99.69       99.70       99.72       99.73    
        99.75       99.76       99.77       99.79       99.80       99.81       99.82       99.84       99.85       99.86    
        99.87       99.87       99.88       99.89       99.90       99.90       99.91       99.92       99.92       99.93    
        99.93       99.94       99.94       99.95       99.95       99.95       99.96       99.96       99.96       99.96    
        99.97       99.97       99.97       99.97       99.97       99.98       99.98       99.98       99.98       99.98    
        99.98       99.98       99.99       99.99       99.99       99.99       99.99       99.99       99.99       99.99    
        99.99       99.99       99.99      100.00      100.00      100.00      100.00      100.00      100.00      100.00    
        100.0    
   7    100.0       99.98       99.95       99.93       99.91       99.89       99.86       99.84       99.82       99.79    
        99.77       99.74       99.72       99.70       99.67       99.65       99.63       99.61       99.59       99.57    
        99.55       99.54       99.53       99.52       99.51       99.51       99.51       99.51       99.51       99.52    
        99.53       99.54       99.56       99.57       99.59       99.61       99.62       99.64       99.66       99.68    
        99.70       99.71       99.73       99.75       99.76       99.78       99.79       99.80       99.82       99.83    
        99.84       99.85       99.86       99.87       99.88       99.89       99.89       99.90       99.91       99.91    
        99.92       99.93       99.93       99.93       99.94       99.94       99.95       99.95       99.95       99.96    
        99.96       99.96       99.96       99.97       99.97       99.97       99.97       99.98       99.98       99.98    
        99.98       99.98       99.98       99.98       99.99       99.99       99.99       99.99       99.99       99.99    
        99.99       99.99       99.99       99.99      100.00      100.00      100.00      100.00      100.00      100.00    
        100.0    
   8    100.0       99.97       99.95       99.92       99.89       99.87       99.84       99.81       99.78       99.76    
        99.73       99.70       99.67       99.64       99.61       99.59       99.56       99.53       99.51       99.49    
        99.47       99.45       99.44       99.43       99.42       99.42       99.42       99.42       99.42       99.43    
        99.45       99.46       99.48       99.50       99.52       99.54       99.56       99.58       99.60       99.62    
        99.64       99.66       99.68       99.70       99.72       99.74       99.76       99.77       99.79       99.80    
        99.81       99.83       99.84       99.85       99.86       99.87       99.88       99.89       99.89       99.90    
        99.91       99.91       99.92       99.92       99.93       99.93       99.94       99.94       99.95       99.95    
        99.95       99.96       99.96       99.96       99.96       99.97       99.97       99.97       99.97       99.98    
        99.98       99.98       99.98       99.98       99.98       99.98       99.99       99.99       99.99       99.99    
        99.99       99.99       99.99       99.99       99.99      100.00      100.00      100.00      100.00      100.00    
        100.0    
   9    100.0       99.97       99.94       99.91       99.88       99.85       99.82       99.78       99.75       99.72    
        99.69       99.65       99.62       99.59       99.55       99.52       99.49       99.46       99.43       99.41    
        99.38       99.36       99.35       99.33       99.32       99.32       99.32       99.32       99.33       99.34    
        99.36       99.37       99.39       99.42       99.44       99.46       99.49       99.52       99.54       99.57    
        99.59       99.62       99.64       99.66       99.68       99.70       99.72       99.74       99.76       99.77    
        99.79       99.80       99.82       99.83       99.84       99.85       99.86       99.87       99.88       99.89    
        99.89       99.90       99.91       99.91       99.92       99.93       99.93       99.93       99.94       99.94    
        99.95       99.95       99.95       99.96       99.96       99.96       99.96       99.97       99.97       99.97    
        99.97       99.98       99.98       99.98       99.98       99.98       99.98       99.99       99.99       99.99    
        99.99       99.99       99.99       99.99       99.99       99.99      100.00      100.00      100.00      100.00    
        100.0    
  10    100.0       99.97       99.93       99.90       99.86       99.83       99.79       99.76       99.72       99.68    
        99.64       99.61       99.57       99.53       99.49       99.45       99.42       99.38       99.35       99.32    
        99.29       99.27       99.25       99.23       99.22       99.21       99.21       99.22       99.23       99.24    
        99.26       99.28       99.31       99.33       99.36       99.39       99.42       99.45       99.48       99.51    
        99.54       99.57       99.59       99.62       99.64       99.67       99.69       99.71       99.73       99.75    
        99.76       99.78       99.79       99.81       99.82       99.83       99.84       99.85       99.86       99.87    
        99.88       99.89       99.90       99.90       99.91       99.92       99.92       99.93       99.93       99.94    
        99.94       99.94       99.95       99.95       99.95       99.96       99.96       99.96       99.97       99.97    
        99.97       99.97       99.97       99.98       99.98       99.98       99.98       99.98       99.98       99.99    
        99.99       99.99       99.99       99.99       99.99       99.99      100.00      100.00      100.00      100.00    
        100.0    
  11    100.0       99.96       99.92       99.89       99.85       99.81       99.77       99.73       99.69       99.64    
        99.60       99.56       99.52       99.47       99.43       99.38       99.34       99.30       99.26       99.23    
        99.19       99.16       99.14       99.12       99.11       99.10       99.10       99.11       99.12       99.14    
        99.16       99.19       99.22       99.25       99.28       99.31       99.35       99.38       99.42       99.45    
        99.49       99.52       99.55       99.58       99.60       99.63       99.65       99.68       99.70       99.72    
        99.74       99.76       99.77       99.79       99.80       99.82       99.83       99.84       99.85       99.86    
        99.87       99.88       99.89       99.89       99.90       99.91       99.91       99.92       99.92       99.93    
        99.93       99.94       99.94       99.95       99.95       99.95       99.96       99.96       99.96       99.97    
        99.97       99.97       99.97       99.97       99.98       99.98       99.98       99.98       99.98       99.98    
        99.99       99.99       99.99       99.99       99.99       99.99       99.99      100.00      100.00      100.00    
        100.0    
  12    100.0       99.96       99.92       99.87       99.83       99.79       99.74       99.70       99.65       99.61    
        99.56       99.51       99.46       99.41       99.36       99.31       99.26       99.22       99.17       99.13    
        99.09       99.05       99.03       99.00       98.99       98.98       98.98       98.99       99.01       99.03    
        99.05       99.08       99.12       99.16       99.20       99.24       99.28       99.32       99.36       99.39    
        99.43       99.47       99.50       99.53       99.56       99.59       99.62       99.65       99.67       99.69    
        99.71       99.73       99.75       99.77       99.78       99.80       99.81       99.82       99.84       99.85    
        99.86       99.87       99.88       99.88       99.89       99.90       99.91       99.91       99.92       99.92    
        99.93       99.93       99.94       99.94       99.95       99.95       99.95       99.96       99.96       99.96    
        99.96       99.97       99.97       99.97       99.97       99.98       99.98       99.98       99.98       99.98    
        99.98       99.99       99.99       99.99       99.99       99.99       99.99      100.00      100.00      100.00    
        100.0    
  13    100.0       99.95       99.91       99.86       99.82       99.77       99.72       99.67       99.62       99.57    
        99.52       99.46       99.41       99.35       99.29       99.24       99.18       99.13       99.07       99.02    
        98.98       98.94       98.90       98.88       98.86       98.85       98.85       98.86       98.88       98.91    
        98.94       98.98       99.02       99.06       99.11       99.16       99.20       99.25       99.29       99.34    
        99.38       99.42       99.46       99.49       99.53       99.56       99.59       99.62       99.64       99.67    
        99.69       99.71       99.73       99.75       99.77       99.78       99.80       99.81       99.82       99.84    
        99.85       99.86       99.87       99.88       99.88       99.89       99.90       99.91       99.91       99.92    
        99.92       99.93       99.93       99.94       99.94       99.95       99.95       99.95       99.96       99.96    
        99.96       99.96       99.97       99.97       99.97       99.97       99.98       99.98       99.98       99.98    
        99.98       99.99       99.99       99.99       99.99       99.99       99.99      100.00      100.00      100.00    
        100.0    
  14    100.0       99.95       99.90       99.85       99.80       99.75       99.70       99.64       99.59       99.53    
        99.47       99.41       99.35       99.29       99.22       99.16       99.10       99.03       98.97       98.91    
        98.86       98.81       98.77       98.74       98.72       98.71       98.71       98.72       98.75       98.78    
        98.82       98.86       98.91       98.96       99.02       99.07       99.13       99.18       99.23       99.28    
        99.32       99.37       99.41       99.45       99.49       99.52       99.56       99.59       99.62       99.64    
        99.67       99.69       99.71       99.73       99.75       99.77       99.78       99.80       99.81       99.82    
        99.84       99.85       99.86       99.87       99.88       99.88       99.89       99.90       99.91       99.91    
        99.92       99.92       99.93       99.93       99.94       99.94       99.95       99.95       99.95       99.96    
        99.96       99.96       99.96       99.97       99.97       99.97       99.97       99.98       99.98       99.98    
        99.98       99.98       99.99       99.99       99.99       99.99       99.99       99.99      100.00      100.00    
        100.0    
  15    100.0       99.95       99.89       99.84       99.79       99.73       99.67       99.61       99.55       99.49    
        99.43       99.36       99.29       99.22       99.15       99.08       99.01       98.93       98.86       98.79    
        98.73       98.67       98.62       98.59       98.56       98.55       98.55       98.57       98.60       98.64    
        98.69       98.74       98.80       98.86       98.92       98.99       99.05       99.11       99.16       99.22    
        99.27       99.32       99.37       99.41       99.45       99.49       99.53       99.56       99.59       99.62    
        99.64       99.67       99.69       99.71       99.73       99.75       99.77       99.78       99.80       99.81    
        99.83       99.84       99.85       99.86       99.87       99.88       99.88       99.89       99.90       99.91    
        99.91       99.92       99.92       99.93       99.93       99.94       99.94       99.95       99.95       99.95    
        99.96       99.96       99.96       99.97       99.97       99.97       99.97       99.97       99.98       99.98    
        99.98       99.98       99.99       99.99       99.99       99.99       99.99       99.99      100.00      100.00    
        100.0    
  16    100.0       99.94       99.89       99.83       99.77       99.71       99.65       99.59       99.52       99.45    
        99.38       99.31       99.24       99.16       99.08       99.00       98.91       98.83       98.75       98.67    
        98.59       98.52       98.46       98.42       98.38       98.37       98.38       98.40       98.43       98.48    
        98.54       98.61       98.68       98.75       98.83       98.90       98.97       99.04       99.10       99.16    
        99.22       99.27       99.32       99.37       99.42       99.46       99.50       99.53       99.56       99.59    
        99.62       99.65       99.67       99.70       99.72       99.74       99.76       99.77       99.79       99.80    
        99.82       99.83       99.84       99.85       99.86       99.87       99.88       99.89       99.89       99.90    
        99.91       99.91       99.92       99.92       99.93       99.93       99.94       99.94       99.95       99.95    
        99.95       99.96       99.96       99.96       99.97       99.97       99.97       99.97       99.98       99.98    
        99.98       99.98       99.98       99.99       99.99       99.99       99.99       99.99      100.00      100.00    
        100.0    
  17    100.0       99.94       99.88       99.82       99.76       99.69       99.63       99.56       99.49       99.42    
        99.34       99.26       99.18       99.10       99.01       98.91       98.82       98.72       98.63       98.53    
        98.44       98.36       98.28       98.23       98.19       98.17       98.18       98.21       98.25       98.32    
        98.39       98.47       98.56       98.64       98.73       98.81       98.89       98.97       99.04       99.11    
        99.17       99.23       99.28       99.33       99.38       99.43       99.47       99.51       99.54       99.57    
        99.60       99.63       99.66       99.68       99.70       99.72       99.74       99.76       99.78       99.79    
        99.81       99.82       99.83       99.84       99.85       99.86       99.87       99.88       99.89       99.90    
        99.90       99.91       99.91       99.92       99.93       99.93       99.94       99.94       99.94       99.95    
        99.95       99.95       99.96       99.96       99.96       99.97       99.97       99.97       99.97       99.98    
        99.98       99.98       99.98       99.99       99.99       99.99       99.99       99.99      100.00      100.00    
        100.0    
  18    100.0       99.94       99.87       99.81       99.74       99.68       99.61       99.53       99.46       99.38    
        99.30       99.22       99.13       99.03       98.93       98.83       98.72       98.61       98.50       98.39    
        98.28       98.17       98.08       98.01       97.96       97.94       97.95       97.99       98.05       98.13    
        98.23       98.32       98.43       98.53       98.63       98.72       98.81       98.90       98.98       99.05    
        99.12       99.18       99.24       99.30       99.35       99.40       99.44       99.48       99.52       99.55    
        99.58       99.61       99.64       99.67       99.69       99.71       99.73       99.75       99.77       99.78    
        99.80       99.81       99.82       99.84       99.85       99.86       99.87       99.87       99.88       99.89    
        99.90       99.90       99.91       99.92       99.92       99.93       99.93       99.94       99.94       99.95    
        99.95       99.95       99.96       99.96       99.96       99.97       99.97       99.97       99.97       99.98    
        99.98       99.98       99.98       99.99       99.99       99.99       99.99       99.99      100.00      100.00    
        100.0    
  19    100.0       99.93       99.87       99.80       99.73       99.66       99.59       99.51       99.43       99.35    
        99.26       99.17       99.07       98.97       98.86       98.75       98.63       98.50       98.37       98.23    
        98.10       97.97       97.86       97.77       97.70       97.68       97.69       97.75       97.83       97.93    
        98.05       98.17       98.29       98.41       98.53       98.63       98.74       98.83       98.92       99.00    
        99.07       99.14       99.21       99.27       99.32       99.37       99.42       99.46       99.50       99.53    
        99.57       99.60       99.63       99.65       99.68       99.70       99.72       99.74       99.76       99.77    
        99.79       99.80       99.82       99.83       99.84       99.85       99.86       99.87       99.88       99.89    
        99.89       99.90       99.91       99.91       99.92       99.92       99.93       99.93       99.94       99.94    
        99.95       99.95       99.95       99.96       99.96       99.96       99.97       99.97       99.97       99.97    
        99.98       99.98       99.98       99.98       99.99       99.99       99.99       99.99      100.00      100.00    
        100.0    
  20    100.0       99.93       99.86       99.79       99.72       99.65       99.57       99.49       99.41       99.32    
        99.23       99.13       99.02       98.91       98.79       98.67       98.53       98.39       98.23       98.08    
        97.92       97.76       97.61       97.49       97.40       97.37       97.39       97.47       97.58       97.71    
        97.86       98.01       98.16       98.30       98.43       98.55       98.66       98.77       98.86       98.95    
        99.03       99.10       99.17       99.23       99.29       99.34       99.39       99.44       99.48       99.52    
        99.55       99.58       99.61       99.64       99.66       99.69       99.71       99.73       99.75       99.77    
        99.78       99.80       99.81       99.82       99.83       99.84       99.86       99.86       99.87       99.88    
        99.89       99.90       99.90       99.91       99.92       99.92       99.93       99.93       99.94       99.94    
        99.94       99.95       99.95       99.96       99.96       99.96       99.97       99.97       99.97       99.97    
        99.98       99.98       99.98       99.98       99.99       99.99       99.99       99.99      100.00      100.00    
        100.0    
  21    100.0       99.93       99.86       99.78       99.71       99.63       99.55       99.47       99.38       99.29    
        99.19       99.09       98.98       98.86       98.73       98.59       98.44       98.28       98.10       97.92    
        97.72       97.52       97.33       97.16       97.04       96.99       97.03       97.14       97.30       97.48    
        97.66       97.85       98.02       98.18       98.33       98.47       98.59       98.71       98.81       98.91    
        98.99       99.07       99.14       99.21       99.27       99.32       99.37       99.42       99.46       99.50    
        99.54       99.57       99.60       99.63       99.65       99.68       99.70       99.72       99.74       99.76    
        99.77       99.79       99.80       99.82       99.83       99.84       99.85       99.86       99.87       99.88    
        99.89       99.89       99.90       99.91       99.91       99.92       99.92       99.93       99.93       99.94    
        99.94       99.95       99.95       99.95       99.96       99.96       99.96       99.97       99.97       99.97    
        99.98       99.98       99.98       99.98       99.99       99.99       99.99       99.99      100.00      100.00    
        100.0    
  22    100.0       99.93       99.85       99.78       99.70       99.62       99.54       99.45       99.36       99.27    
        99.16       99.05       98.94       98.81       98.67       98.52       98.36       98.17       97.97       97.76    
        97.52       97.27       97.02       96.78       96.60       96.52       96.59       96.76       96.98       97.22    
        97.46       97.69       97.89       98.08       98.25       98.40       98.53       98.66       98.77       98.87    
        98.96       99.04       99.11       99.18       99.25       99.30       99.35       99.40       99.45       99.49    
        99.52       99.56       99.59       99.62       99.64       99.67       99.69       99.71       99.73       99.75    
        99.77       99.78       99.80       99.81       99.82       99.83       99.85       99.86       99.87       99.87    
        99.88       99.89       99.90       99.90       99.91       99.92       99.92       99.93       99.93       99.94    
        99.94       99.94       99.95       99.95       99.96       99.96       99.96       99.97       99.97       99.97    
        99.97       99.98       99.98       99.98       99.99       99.99       99.99       99.99      100.00      100.00    
        100.0    
  23    100.0       99.92       99.85       99.77       99.69       99.61       99.53       99.44       99.35       99.25    
        99.14       99.03       98.90       98.77       98.62       98.46       98.28       98.08       97.86       97.61    
        97.33       97.02       96.68       96.33       96.04       95.90       96.03       96.31       96.64       96.97    
        97.27       97.54       97.78       97.98       98.17       98.33       98.48       98.61       98.73       98.83    
        98.93       99.01       99.09       99.16       99.23       99.29       99.34       99.39       99.43       99.47    
        99.51       99.55       99.58       99.61       99.64       99.66       99.68       99.71       99.73       99.74    
        99.76       99.78       99.79       99.81       99.82       99.83       99.84       99.85       99.86       99.87    
        99.88       99.89       99.89       99.90       99.91       99.91       99.92       99.92       99.93       99.93    
        99.94       99.94       99.95       99.95       99.95       99.96       99.96       99.96       99.97       99.97    
        99.97       99.98       99.98       99.98       99.98       99.99       99.99       99.99      100.00      100.00    
        100.0    
  24    100.0       99.92       99.85       99.77       99.69       99.60       99.52       99.43       99.33       99.23    
        99.12       99.00       98.88       98.74       98.59       98.42       98.23       98.01       97.77       97.49    
        97.16       96.78       96.33       95.83       95.31       94.99       95.30       95.80       96.30       96.73    
        97.10       97.41       97.68       97.91       98.11       98.29       98.44       98.58       98.70       98.81    
        98.91       98.99       99.07       99.15       99.21       99.27       99.33       99.38       99.42       99.46    
        99.50       99.54       99.57       99.60       99.63       99.65       99.68       99.70       99.72       99.74    
        99.76       99.77       99.79       99.80       99.81       99.83       99.84       99.85       99.86       99.87    
        99.88       99.88       99.89       99.90       99.91       99.91       99.92       99.92       99.93       99.93    
        99.94       99.94       99.95       99.95       99.95       99.96       99.96       99.96       99.97       99.97    
        99.97       99.98       99.98       99.98       99.98       99.99       99.99       99.99       99.99      100.00    
        100.0    
  25    100.0       99.92       99.84       99.76       99.68       99.60       99.51       99.42       99.32       99.22    
        99.11       98.99       98.86       98.72       98.56       98.38       98.19       97.96       97.70       97.40    
        97.04       96.60       96.04       95.31       94.38       93.44       94.37       95.29       96.00       96.55    
        96.98       97.33       97.62       97.86       98.07       98.25       98.41       98.55       98.68       98.79    
        98.89       98.98       99.06       99.13       99.20       99.26       99.32       99.37       99.41       99.46    
        99.50       99.53       99.56       99.60       99.62       99.65       99.67       99.70       99.72       99.73    
        99.75       99.77       99.78       99.80       99.81       99.82       99.84       99.85       99.86       99.86    
        99.87       99.88       99.89       99.90       99.90       99.91       99.92       99.92       99.93       99.93    
        99.94       99.94       99.94       99.95       99.95       99.96       99.96       99.96       99.97       99.97    
        99.97       99.98       99.98       99.98       99.98       99.99       99.99       99.99       99.99      100.00    
        100.0    
  26    100.0       99.92       99.84       99.76       99.68       99.60       99.51       99.42       99.32       99.21    
        99.10       98.98       98.85       98.71       98.55       98.37       98.17       97.94       97.68       97.37    
        96.99       96.52       95.90       94.99       93.44       90.00       93.43       94.97       95.86       96.47    
        96.93       97.29       97.59       97.84       98.05       98.24       98.40       98.54       98.67       98.78    
        98.88       98.97       99.05       99.13       99.19       99.25       99.31       99.36       99.41       99.45    
        99.49       99.53       99.56       99.59       99.62       99.64       99.67       99.69       99.71       99.73    
        99.75       99.77       99.78       99.80       99.81       99.82       99.83       99.84       99.85       99.86    
        99.87       99.88       99.89       99.89       99.90       99.91       99.91       99.92       99.92       99.93    
        99.93       99.94       99.94       99.95       99.95       99.96       99.96       99.96       99.97       99.97    
        99.97       99.97       99.98       99.98       99.98       99.99       99.99       99.99       99.99      100.00    
        100.0    
  27    100.0       99.92       99.84       99.76       99.68       99.60       99.51       99.42       99.32       99.21    
        99.10       98.98       98.85       98.71       98.55       98.38       98.18       97.95       97.69       97.39    
        97.03       96.59       96.03       95.30       94.37       93.43       94.36       95.28       95.99       96.53    
        96.97       97.31       97.60       97.85       98.06       98.24       98.40       98.54       98.67       98.78    
        98.88       98.97       99.05       99.12       99.19       99.25       99.31       99.36       99.40       99.45    
        99.49       99.52       99.56       99.59       99.61       99.64       99.67       99.69       99.71       99.73    
        99.75       99.76       99.78       99.79       99.81       99.82       99.83       99.84       99.85       99.86    
        99.87       99.88       99.89       99.89       99.90       99.91       99.91       99.92       99.92       99.93    
        99.93       99.94       99.94       99.95       99.95       99.95       99.96       99.96       99.96       99.97    
        99.97       99.97       99.98       99.98       99.98       99.99       99.99       99.99       99.99      100.00    
        100.0    
  28    100.0       99.92       99.84       99.76       99.68       99.60       99.51       99.42       99.32       99.22    
        99.11       98.99       98.86       98.72       98.57       98.40       98.21       97.99       97.75       97.47    
        97.14       96.76       96.31       95.80       95.29       94.97       95.28       95.78       96.27       96.71    
        97.07       97.39       97.65       97.88       98.08       98.26       98.41       98.55       98.67       98.78    
        98.88       98.97       99.05       99.12       99.19       99.25       99.31       99.36       99.40       99.45    
        99.48       99.52       99.55       99.58       99.61       99.64       99.66       99.69       99.71       99.73    
        99.74       99.76       99.78       99.79       99.80       99.82       99.83       99.84       99.85       99.86    
        99.87       99.88       99.88       99.89       99.90       99.90       99.91       99.92       99.92       99.93    
        99.93       99.94       99.94       99.95       99.95       99.95       99.96       99.96       99.96       99.97    
        99.97       99.97       99.98       99.98       99.98       99.99       99.99       99.99       99.99      100.00    
        100.0    
  29    100.0       99.92       99.84       99.77       99.68       99.60       99.51       99.42       99.33       99.23    
        99.12       99.01       98.88       98.75       98.60       98.43       98.25       98.05       97.83       97.58    
        97.30       96.98       96.64       96.30       96.00       95.86       95.99       96.27       96.60       96.93    
        97.23       97.50       97.74       97.95       98.13       98.30       98.44       98.57       98.69       98.80    
        98.89       98.98       99.06       99.13       99.19       99.25       99.31       99.36       99.40       99.45    
        99.48       99.52       99.55       99.58       99.61       99.64       99.66       99.68       99.70       99.72    
        99.74       99.76       99.77       99.79       99.80       99.81       99.83       99.84       99.85       99.86    
        99.87       99.87       99.88       99.89       99.90       99.90       99.91       99.92       99.92       99.93    
        99.93       99.94       99.94       99.94       99.95       99.95       99.96       99.96       99.96       99.97    
        99.97       99.97       99.98       99.98       99.98       99.99       99.99       99.99       99.99      100.00    
        100.0    
  30    100.0       99.92       99.85       99.77       99.69       99.61       99.52       99.43       99.34       99.24    
        99.14       99.03       98.91       98.78       98.64       98.48       98.32       98.13       97.93       97.71    
        97.48       97.22       96.97       96.73       96.55       96.47       96.53       96.71       96.93       97.17    
        97.41       97.63       97.84       98.03       98.19       98.35       98.48       98.60       98.72       98.82    
        98.91       98.99       99.07       99.14       99.20       99.26       99.31       99.36       99.41       99.45    
        99.49       99.52       99.55       99.58       99.61       99.64       99.66       99.68       99.70       99.72    
        99.74       99.76       99.77       99.79       99.80       99.81       99.83       99.84       99.85       99.86    
        99.87       99.87       99.88       99.89       99.90       99.90       99.91       99.91       99.92       99.93    
        99.93       99.94       99.94       99.94       99.95       99.95       99.96       99.96       99.96       99.97    
        99.97       99.97       99.98       99.98       99.98       99.99       99.99       99.99       99.99      100.00    
        100.0    
  31    100.0       99.93       99.85       99.77       99.70       99.62       99.53       99.45       99.36       99.26    
        99.16       99.05       98.94       98.82       98.69       98.54       98.39       98.23       98.05       97.86    
        97.66       97.46       97.27       97.10       96.98       96.93       96.97       97.07       97.23       97.41    
        97.60       97.78       97.95       98.12       98.27       98.40       98.53       98.64       98.75       98.84    
        98.93       99.01       99.08       99.15       99.21       99.27       99.32       99.37       99.41       99.45    
        99.49       99.52       99.56       99.59       99.61       99.64       99.66       99.68       99.70       99.72    
        99.74       99.76       99.77       99.79       99.80       99.81       99.82       99.84       99.85       99.86    
        99.86       99.87       99.88       99.89       99.90       99.90       99.91       99.91       99.92       99.92    
        99.93       99.93       99.94       99.94       99.95       99.95       99.96       99.96       99.96       99.97    
        99.97       99.97       99.98       99.98       99.98       99.99       99.99       99.99       99.99      100.00    
        100.0    
  32    100.0       99.93       99.85       99.78       99.70       99.62       99.54       99.46       99.37       99.28    
        99.19       99.08       98.98       98.86       98.74       98.61       98.47       98.32       98.17       98.01    
        97.85       97.69       97.54       97.41       97.33       97.29       97.31       97.39       97.50       97.63    
        97.78       97.93       98.08       98.22       98.35       98.47       98.58       98.69       98.79       98.88    
        98.96       99.03       99.10       99.17       99.23       99.28       99.33       99.38       99.42       99.46    
        99.49       99.53       99.56       99.59       99.62       99.64       99.66       99.68       99.71       99.72    
        99.74       99.76       99.77       99.79       99.80       99.81       99.82       99.83       99.85       99.85    
        99.86       99.87       99.88       99.89       99.89       99.90       99.91       99.91       99.92       99.92    
        99.93       99.93       99.94       99.94       99.95       99.95       99.96       99.96       99.96       99.97    
        99.97       99.97       99.98       99.98       99.98       99.99       99.99       99.99       99.99      100.00    
        100.0    
  33    100.0       99.93       99.86       99.78       99.71       99.64       99.56       99.48       99.39       99.31    
        99.22       99.12       99.02       98.91       98.80       98.68       98.56       98.43       98.29       98.16    
        98.02       97.89       97.78       97.68       97.62       97.59       97.60       97.65       97.74       97.84    
        97.95       98.08       98.20       98.32       98.43       98.54       98.64       98.74       98.83       98.91    
        98.99       99.06       99.12       99.19       99.24       99.29       99.34       99.39       99.43       99.47    
        99.50       99.53       99.56       99.59       99.62       99.64       99.67       99.69       99.71       99.73    
        99.74       99.76       99.77       99.79       99.80       99.81       99.82       99.83       99.84       99.85    
        99.86       99.87       99.88       99.89       99.89       99.90       99.91       99.91       99.92       99.92    
        99.93       99.93       99.94       99.94       99.95       99.95       99.95       99.96       99.96       99.97    
        99.97       99.97       99.98       99.98       99.98       99.99       99.99       99.99       99.99      100.00    
        100.0    
  34    100.0       99.93       99.86       99.79       99.72       99.65       99.57       99.50       99.42       99.33    
        99.25       99.16       99.06       98.96       98.86       98.75       98.64       98.53       98.41       98.30    
        98.18       98.08       97.98       97.91       97.86       97.84       97.85       97.88       97.95       98.03    
        98.12       98.22       98.32       98.42       98.52       98.62       98.71       98.79       98.87       98.95    
        99.02       99.09       99.15       99.21       99.26       99.31       99.35       99.40       99.44       99.47    
        99.51       99.54       99.57       99.60       99.62       99.65       99.67       99.69       99.71       99.73    
        99.74       99.76       99.77       99.79       99.80       99.81       99.82       99.84       99.85       99.85    
        99.86       99.87       99.88       99.89       99.89       99.90       99.91       99.91       99.92       99.92    
        99.93       99.93       99.94       99.94       99.95       99.95       99.95       99.96       99.96       99.97    
        99.97       99.97       99.98       99.98       99.98       99.99       99.99       99.99       99.99      100.00    
        100.0    
  35    100.0       99.93       99.87       99.80       99.73       99.66       99.59       99.52       99.44       99.36    
        99.28       99.20       99.11       99.02       98.92       98.83       98.73       98.63       98.53       98.43    
        98.33       98.25       98.17       98.11       98.07       98.05       98.06       98.08       98.13       98.19    
        98.27       98.35       98.43       98.52       98.61       98.69       98.77       98.85       98.92       98.99    
        99.06       99.12       99.18       99.23       99.28       99.33       99.37       99.41       99.45       99.48    
        99.52       99.55       99.58       99.60       99.63       99.65       99.67       99.69       99.71       99.73    
        99.75       99.76       99.78       99.79       99.80       99.81       99.83       99.84       99.85       99.85    
        99.86       99.87       99.88       99.89       99.89       99.90       99.91       99.91       99.92       99.92    
        99.93       99.93       99.94       99.94       99.95       99.95       99.95       99.96       99.96       99.97    
        99.97       99.97       99.98       99.98       99.98       99.99       99.99       99.99       99.99      100.00    
        100.0    
  36    100.0       99.94       99.87       99.81       99.74       99.67       99.61       99.54       99.46       99.39    
        99.31       99.24       99.16       99.07       98.99       98.90       98.81       98.72       98.63       98.55    
        98.47       98.40       98.33       98.29       98.25       98.24       98.24       98.26       98.30       98.35    
        98.40       98.47       98.54       98.62       98.69       98.76       98.83       98.90       98.97       99.03    
        99.09       99.15       99.20       99.25       99.30       99.35       99.39       99.43       99.46       99.49    
        99.53       99.56       99.58       99.61       99.63       99.66       99.68       99.70       99.71       99.73    
        99.75       99.76       99.78       99.79       99.80       99.82       99.83       99.84       99.85       99.86    
        99.86       99.87       99.88       99.89       99.89       99.90       99.91       99.91       99.92       99.92    
        99.93       99.93       99.94       99.94       99.95       99.95       99.95       99.96       99.96       99.97    
        99.97       99.97       99.98       99.98       99.98       99.99       99.99       99.99       99.99      100.00    
        100.0    
  37    100.0       99.94       99.88       99.82       99.75       99.69       99.62       99.56       99.49       99.42    
        99.35       99.28       99.20       99.13       99.05       98.97       98.89       98.81       98.74       98.66    
        98.59       98.53       98.48       98.44       98.41       98.40       98.40       98.41       98.44       98.48    
        98.53       98.58       98.64       98.71       98.77       98.83       98.90       98.96       99.02       99.08    
        99.13       99.18       99.23       99.28       99.32       99.37       99.40       99.44       99.47       99.51    
        99.54       99.57       99.59       99.62       99.64       99.66       99.68       99.70       99.72       99.74    
        99.75       99.77       99.78       99.79       99.81       99.82       99.83       99.84       99.85       99.86    
        99.86       99.87       99.88       99.89       99.89       99.90       99.91       99.91       99.92       99.92    
        99.93       99.93       99.94       99.94       99.95       99.95       99.95       99.96       99.96       99.97    
        99.97       99.97       99.98       99.98       99.98       99.99       99.99       99.99       99.99      100.00    
        100.0    
  38    100.0       99.94       99.88       99.82       99.76       99.70       99.64       99.58       99.52       99.45    
        99.38       99.32       99.25       99.18       99.11       99.04       98.97       98.90       98.83       98.77    
        98.71       98.66       98.61       98.58       98.55       98.54       98.54       98.55       98.57       98.60    
        98.64       98.69       98.74       98.79       98.85       98.90       98.96       99.01       99.07       99.12    
        99.17       99.22       99.26       99.31       99.35       99.39       99.42       99.46       99.49       99.52    
        99.55       99.58       99.60       99.62       99.65       99.67       99.69       99.71       99.72       99.74    
        99.75       99.77       99.78       99.80       99.81       99.82       99.83       99.84       99.85       99.86    
        99.87       99.87       99.88       99.89       99.90       99.90       99.91       99.91       99.92       99.92    
        99.93       99.93       99.94       99.94       99.95       99.95       99.95       99.96       99.96       99.97    
        99.97       99.97       99.98       99.98       99.98       99.99       99.99       99.99       99.99      100.00    
        100.0    
  39    100.0       99.94       99.89       99.83       99.78       99.72       99.66       99.60       99.54       99.48    
        99.42       99.36       99.29       99.23       99.16       99.10       99.04       98.98       98.92       98.86    
        98.81       98.77       98.73       98.70       98.68       98.67       98.67       98.67       98.69       98.72    
        98.75       98.79       98.83       98.87       98.92       98.97       99.02       99.07       99.12       99.16    
        99.21       99.25       99.29       99.33       99.37       99.41       99.44       99.47       99.50       99.53    
        99.56       99.59       99.61       99.63       99.65       99.67       99.69       99.71       99.73       99.74    
        99.76       99.77       99.79       99.80       99.81       99.82       99.83       99.84       99.85       99.86    
        99.87       99.87       99.88       99.89       99.90       99.90       99.91       99.91       99.92       99.92    
        99.93       99.93       99.94       99.94       99.95       99.95       99.95       99.96       99.96       99.97    
        99.97       99.97       99.98       99.98       99.98       99.99       99.99       99.99       99.99      100.00    
        100.0    
  40    100.0       99.95       99.89       99.84       99.79       99.73       99.68       99.62       99.57       99.51    
        99.45       99.39       99.34       99.28       99.22       99.16       99.11       99.05       99.00       98.95    
        98.91       98.87       98.83       98.81       98.79       98.78       98.78       98.78       98.80       98.82    
        98.84       98.88       98.91       98.95       98.99       99.03       99.08       99.12       99.16       99.20    
        99.25       99.29       99.32       99.36       99.40       99.43       99.46       99.49       99.52       99.55    
        99.57       99.60       99.62       99.64       99.66       99.68       99.70       99.72       99.73       99.75    
        99.76       99.78       99.79       99.80       99.81       99.82       99.83       99.84       99.85       99.86    
        99.87       99.88       99.88       99.89       99.90       99.90       99.91       99.91       99.92       99.92    
        99.93       99.93       99.94       99.94       99.95       99.95       99.95       99.96       99.96       99.97    
        99.97       99.97       99.98       99.98       99.98       99.99       99.99       99.99       99.99      100.00    
        100.0    
  41    100.0       99.95       99.90       99.85       99.80       99.75       99.70       99.64       99.59       99.54    
        99.49       99.43       99.38       99.32       99.27       99.22       99.17       99.12       99.07       99.03    
        98.99       98.96       98.93       98.91       98.89       98.88       98.88       98.88       98.89       98.91    
        98.93       98.96       98.99       99.02       99.06       99.09       99.13       99.17       99.21       99.25    
        99.28       99.32       99.35       99.39       99.42       99.45       99.48       99.51       99.54       99.56    
        99.59       99.61       99.63       99.65       99.67       99.69       99.71       99.72       99.74       99.75    
        99.77       99.78       99.79       99.80       99.82       99.83       99.84       99.84       99.85       99.86    
        99.87       99.88       99.88       99.89       99.90       99.90       99.91       99.91       99.92       99.93    
        99.93       99.93       99.94       99.94       99.95       99.95       99.96       99.96       99.96       99.97    
        99.97       99.97       99.98       99.98       99.98       99.99       99.99       99.99       99.99      100.00    
        100.0    
  42    100.0       99.95       99.90       99.86       99.81       99.76       99.71       99.66       99.62       99.57    
        99.52       99.47       99.42       99.37       99.32       99.27       99.23       99.18       99.14       99.10    
        99.07       99.04       99.01       98.99       98.98       98.97       98.97       98.97       98.98       98.99    
        99.01       99.03       99.06       99.09       99.12       99.15       99.18       99.22       99.25       99.29    
        99.32       99.35       99.38       99.41       99.44       99.47       99.50       99.53       99.55       99.58    
        99.60       99.62       99.64       99.66       99.68       99.70       99.71       99.73       99.74       99.76    
        99.77       99.78       99.80       99.81       99.82       99.83       99.84       99.85       99.86       99.86    
        99.87       99.88       99.89       99.89       99.90       99.90       99.91       99.92       99.92       99.93    
        99.93       99.94       99.94       99.94       99.95       99.95       99.96       99.96       99.96       99.97    
        99.97       99.97       99.98       99.98       99.98       99.99       99.99       99.99       99.99      100.00    
        100.0    
  43    100.0       99.96       99.91       99.87       99.82       99.77       99.73       99.68       99.64       99.59    
        99.55       99.50       99.46       99.41       99.37       99.32       99.28       99.24       99.21       99.17    
        99.14       99.11       99.09       99.07       99.06       99.05       99.05       99.05       99.06       99.07    
        99.08       99.10       99.12       99.15       99.18       99.20       99.23       99.26       99.29       99.32    
        99.35       99.38       99.41       99.44       99.47       99.49       99.52       99.54       99.57       99.59    
        99.61       99.63       99.65       99.67       99.69       99.71       99.72       99.74       99.75       99.76    
        99.78       99.79       99.80       99.81       99.82       99.83       99.84       99.85       99.86       99.87    
        99.87       99.88       99.89       99.89       99.90       99.91       99.91       99.92       99.92       99.93    
        99.93       99.94       99.94       99.94       99.95       99.95       99.96       99.96       99.96       99.97    
        99.97       99.97       99.98       99.98       99.98       99.99       99.99       99.99       99.99      100.00    
        100.0    
  44    100.0       99.96       99.92       99.87       99.83       99.79       99.75       99.70       99.66       99.62    
        99.58       99.53       99.49       99.45       99.41       99.37       99.33       99.30       99.27       99.23    
        99.21       99.18       99.16       99.15       99.13       99.13       99.12       99.12       99.13       99.14    
        99.15       99.17       99.19       99.21       99.23       99.25       99.28       99.31       99.33       99.36    
        99.39       99.41       99.44       99.47       99.49       99.52       99.54       99.56       99.58       99.61    
        99.63       99.64       99.66       99.68       99.70       99.71       99.73       99.74       99.76       99.77    
        99.78       99.79       99.80       99.82       99.83       99.83       99.84       99.85       99.86       99.87    
        99.88       99.88       99.89       99.90       99.90       99.91       99.91       99.92       99.92       99.93    
        99.93       99.94       99.94       99.94       99.95       99.95       99.96       99.96       99.96       99.97    
        99.97       99.97       99.98       99.98       99.98       99.99       99.99       99.99       99.99      100.00    
        100.0    
  45    100.0       99.96       99.92       99.88       99.84       99.80       99.76       99.72       99.68       99.64    
        99.60       99.56       99.53       99.49       99.45       99.42       99.38       99.35       99.32       99.29    
        99.27       99.25       99.23       99.21       99.20       99.19       99.19       99.19       99.19       99.20    
        99.21       99.23       99.24       99.26       99.28       99.30       99.32       99.35       99.37       99.40    
        99.42       99.44       99.47       99.49       99.51       99.54       99.56       99.58       99.60       99.62    
        99.64       99.66       99.67       99.69       99.71       99.72       99.74       99.75       99.76       99.78    
        99.79       99.80       99.81       99.82       99.83       99.84       99.85       99.85       99.86       99.87    
        99.88       99.88       99.89       99.90       99.90       99.91       99.91       99.92       99.92       99.93    
        99.93       99.94       99.94       99.95       99.95       99.95       99.96       99.96       99.96       99.97    
        99.97       99.97       99.98       99.98       99.98       99.99       99.99       99.99       99.99      100.00    
        100.0    
  46    100.0       99.96       99.93       99.89       99.85       99.81       99.78       99.74       99.70       99.67    
        99.63       99.59       99.56       99.52       99.49       99.46       99.43       99.40       99.37       99.34    
        99.32       99.30       99.29       99.27       99.26       99.25       99.25       99.25       99.25       99.26    
        99.27       99.28       99.29       99.31       99.33       99.35       99.37       99.39       99.41       99.43    
        99.45       99.47       99.49       99.52       99.54       99.56       99.58       99.60       99.62       99.63    
        99.65       99.67       99.69       99.70       99.72       99.73       99.74       99.76       99.77       99.78    
        99.79       99.80       99.81       99.82       99.83       99.84       99.85       99.86       99.87       99.87    
        99.88       99.89       99.89       99.90       99.90       99.91       99.91       99.92       99.92       99.93    
        99.93       99.94       99.94       99.95       99.95       99.95       99.96       99.96       99.96       99.97    
        99.97       99.97       99.98       99.98       99.98       99.99       99.99       99.99       99.99      100.00    
        100.0    
  47    100.0       99.96       99.93       99.89       99.86       99.82       99.79       99.76       99.72       99.69    
        99.65       99.62       99.59       99.56       99.53       99.50       99.47       99.44       99.42       99.39    
        99.37       99.35       99.34       99.33       99.32       99.31       99.31       99.31       99.31       99.31    
        99.32       99.33       99.34       99.35       99.37       99.39       99.40       99.42       99.44       99.46    
        99.48       99.50       99.52       99.54       99.56       99.58       99.60       99.61       99.63       99.65    
        99.67       99.68       99.70       99.71       99.73       99.74       99.75       99.76       99.78       99.79    
        99.80       99.81       99.82       99.83       99.84       99.84       99.85       99.86       99.87       99.88    
        99.88       99.89       99.89       99.90       99.91       99.91       99.92       99.92       99.93       99.93    
        99.93       99.94       99.94       99.95       99.95       99.95       99.96       99.96       99.96       99.97    
        99.97       99.97       99.98       99.98       99.98       99.99       99.99       99.99       99.99      100.00    
        100.0    
  48    100.0       99.97       99.93       99.90       99.87       99.84       99.80       99.77       99.74       99.71    
        99.68       99.65       99.62       99.59       99.56       99.53       99.51       99.48       99.46       99.44    
        99.42       99.40       99.39       99.38       99.37       99.36       99.36       99.36       99.36       99.36    
        99.37       99.38       99.39       99.40       99.41       99.43       99.44       99.46       99.47       99.49    
        99.51       99.53       99.54       99.56       99.58       99.60       99.61       99.63       99.65       99.66    
        99.68       99.69       99.71       99.72       99.73       99.75       99.76       99.77       99.78       99.79    
        99.80       99.81       99.82       99.83       99.84       99.85       99.86       99.86       99.87       99.88    
        99.88       99.89       99.90       99.90       99.91       99.91       99.92       99.92       99.93       99.93    
        99.94       99.94       99.94       99.95       99.95       99.95       99.96       99.96       99.96       99.97    
        99.97       99.97       99.98       99.98       99.98       99.99       99.99       99.99       99.99      100.00    
        100.0    
  49    100.0       99.97       99.94       99.91       99.88       99.85       99.82       99.79       99.76       99.73    
        99.70       99.67       99.64       99.62       99.59       99.56       99.54       99.52       99.50       99.48    
        99.46       99.45       99.43       99.42       99.41       99.41       99.40       99.40       99.40       99.41    
        99.41       99.42       99.43       99.44       99.45       99.46       99.47       99.49       99.50       99.52    
        99.54       99.55       99.57       99.58       99.60       99.62       99.63       99.65       99.66       99.68    
        99.69       99.71       99.72       99.73       99.74       99.76       99.77       99.78       99.79       99.80    
        99.81       99.82       99.83       99.84       99.84       99.85       99.86       99.87       99.87       99.88    
        99.89       99.89       99.90       99.90       99.91       99.91       99.92       99.92       99.93       99.93    
        99.94       99.94       99.94       99.95       99.95       99.96       99.96       99.96       99.97       99.97    
        99.97       99.97       99.98       99.98       99.98       99.99       99.99       99.99       99.99      100.00    
        100.0    
  50    100.0       99.97       99.94       99.91       99.89       99.86       99.83       99.80       99.77       99.75    
        99.72       99.69       99.67       99.64       99.62       99.59       99.57       99.55       99.53       99.52    
        99.50       99.49       99.47       99.46       99.46       99.45       99.45       99.45       99.45       99.45    
        99.45       99.46       99.47       99.47       99.48       99.49       99.51       99.52       99.53       99.55    
        99.56       99.58       99.59       99.61       99.62       99.63       99.65       99.66       99.68       99.69    
        99.70       99.72       99.73       99.74       99.75       99.76       99.78       99.79       99.80       99.81    
        99.81       99.82       99.83       99.84       99.85       99.86       99.86       99.87       99.88       99.88    
        99.89       99.89       99.90       99.91       99.91       99.92       99.92       99.93       99.93       99.93    
        99.94       99.94       99.95       99.95       99.95       99.96       99.96       99.96       99.97       99.97    
        99.97       99.97       99.98       99.98       99.98       99.99       99.99       99.99       99.99      100.00    
        100.0    
  51    100.0       99.97       99.95       99.92       99.89       99.87       99.84       99.81       99.79       99.76    
        99.74       99.71       99.69       99.67       99.64       99.62       99.60       99.58       99.57       99.55    
        99.54       99.52       99.51       99.50       99.50       99.49       99.49       99.48       99.48       99.49    
        99.49       99.49       99.50       99.51       99.52       99.53       99.54       99.55       99.56       99.57    
        99.59       99.60       99.61       99.63       99.64       99.65       99.67       99.68       99.69       99.70    
        99.72       99.73       99.74       99.75       99.76       99.77       99.78       99.79       99.80       99.81    
        99.82       99.83       99.84       99.85       99.85       99.86       99.87       99.87       99.88       99.89    
        99.89       99.90       99.90       99.91       99.91       99.92       99.92       99.93       99.93       99.93    
        99.94       99.94       99.95       99.95       99.95       99.96       99.96       99.96       99.97       99.97    
        99.97       99.98       99.98       99.98       99.98       99.99       99.99       99.99       99.99      100.00    
        100.0    
  52    100.0       99.97       99.95       99.92       99.90       99.87       99.85       99.83       99.80       99.78    
        99.76       99.73       99.71       99.69       99.67       99.65       99.63       99.61       99.60       99.58    
        99.57       99.56       99.55       99.54       99.53       99.53       99.52       99.52       99.52       99.52    
        99.52       99.53       99.53       99.54       99.55       99.56       99.57       99.58       99.59       99.60    
        99.61       99.62       99.63       99.64       99.66       99.67       99.68       99.69       99.71       99.72    
        99.73       99.74       99.75       99.76       99.77       99.78       99.79       99.80       99.81       99.82    
        99.83       99.83       99.84       99.85       99.86       99.86       99.87       99.88       99.88       99.89    
        99.89       99.90       99.90       99.91       99.91       99.92       99.92       99.93       99.93       99.94    
        99.94       99.94       99.95       99.95       99.95       99.96       99.96       99.96       99.97       99.97    
        99.97       99.98       99.98       99.98       99.98       99.99       99.99       99.99       99.99      100.00    
        100.0    
  53    100.0       99.98       99.95       99.93       99.91       99.88       99.86       99.84       99.82       99.79    
        99.77       99.75       99.73       99.71       99.69       99.67       99.66       99.64       99.63       99.61    
        99.60       99.59       99.58       99.57       99.56       99.56       99.56       99.55       99.55       99.55    
        99.56       99.56       99.56       99.57       99.58       99.58       99.59       99.60       99.61       99.62    
        99.63       99.64       99.65       99.66       99.67       99.69       99.70       99.71       99.72       99.73    
        99.74       99.75       99.76       99.77       99.78       99.79       99.80       99.81       99.82       99.82    
        99.83       99.84       99.85       99.85       99.86       99.87       99.87       99.88       99.89       99.89    
        99.90       99.90       99.91       99.91       99.92       99.92       99.93       99.93       99.93       99.94    
        99.94       99.94       99.95       99.95       99.96       99.96       99.96       99.96       99.97       99.97    
        99.97       99.98       99.98       99.98       99.98       99.99       99.99       99.99       99.99      100.00    
        100.0    
  54    100.0       99.98       99.96       99.93       99.91       99.89       99.87       99.85       99.83       99.81    
        99.79       99.77       99.75       99.73       99.71       99.70       99.68       99.67       99.65       99.64    
        99.63       99.62       99.61       99.60       99.60       99.59       99.59       99.58       99.58       99.58    
        99.59       99.59       99.59       99.60       99.60       99.61       99.62       99.62       99.63       99.64    
        99.65       99.66       99.67       99.68       99.69       99.70       99.71       99.72       99.73       99.74    
        99.75       99.76       99.77       99.78       99.79       99.80       99.81       99.81       99.82       99.83    
        99.84       99.84       99.85       99.86       99.87       99.87       99.88       99.88       99.89       99.89    
        99.90       99.90       99.91       99.91       99.92       99.92       99.93       99.93       99.94       99.94    
        99.94       99.95       99.95       99.95       99.96       99.96       99.96       99.97       99.97       99.97    
        99.97       99.98       99.98       99.98       99.98       99.99       99.99       99.99       99.99      100.00    
        100.0    
  55    100.0       99.98       99.96       99.94       99.92       99.90       99.88       99.86       99.84       99.82    
        99.80       99.78       99.77       99.75       99.73       99.72       99.70       99.69       99.68       99.66    
        99.65       99.64       99.64       99.63       99.62       99.62       99.61       99.61       99.61       99.61    
        99.61       99.62       99.62       99.62       99.63       99.63       99.64       99.65       99.65       99.66    
        99.67       99.68       99.69       99.70       99.71       99.72       99.73       99.73       99.74       99.75    
        99.76       99.77       99.78       99.79       99.80       99.81       99.81       99.82       99.83       99.84    
        99.84       99.85       99.86       99.86       99.87       99.88       99.88       99.89       99.89       99.90    
        99.90       99.91       99.91       99.92       99.92       99.92       99.93       99.93       99.94       99.94    
        99.94       99.95       99.95       99.95       99.96       99.96       99.96       99.97       99.97       99.97    
        99.97       99.98       99.98       99.98       99.98       99.99       99.99       99.99      100.00      100.00    
        100.0    
  56    100.0       99.98       99.96       99.94       99.92       99.90       99.89       99.87       99.85       99.83    
        99.82       99.80       99.78       99.77       99.75       99.74       99.72       99.71       99.70       99.69    
        99.68       99.67       99.66       99.65       99.65       99.64       99.64       99.64       99.64       99.64    
        99.64       99.64       99.64       99.65       99.65       99.66       99.66       99.67       99.67       99.68    
        99.69       99.70       99.71       99.71       99.72       99.73       99.74       99.75       99.76       99.76    
        99.77       99.78       99.79       99.80       99.81       99.81       99.82       99.83       99.83       99.84    
        99.85       99.86       99.86       99.87       99.87       99.88       99.88       99.89       99.90       99.90    
        99.91       99.91       99.91       99.92       99.92       99.93       99.93       99.93       99.94       99.94    
        99.94       99.95       99.95       99.95       99.96       99.96       99.96       99.97       99.97       99.97    
        99.97       99.98       99.98       99.98       99.99       99.99       99.99       99.99      100.00      100.00    
        100.0    
  57    100.0       99.98       99.96       99.95       99.93       99.91       99.89       99.88       99.86       99.84    
        99.83       99.81       99.80       99.78       99.77       99.76       99.74       99.73       99.72       99.71    
        99.70       99.69       99.68       99.68       99.67       99.67       99.67       99.66       99.66       99.66    
        99.66       99.66       99.67       99.67       99.67       99.68       99.68       99.69       99.69       99.70    
        99.71       99.71       99.72       99.73       99.74       99.74       99.75       99.76       99.77       99.78    
[...]
        99.99       99.99       99.99       99.99       99.99       99.99       99.99       99.99       99.99       99.99    
        99.99       99.99       99.99       99.99       99.99       99.99       99.99       99.99       99.99       99.99    
       100.00      100.00      100.00      100.00      100.00      100.00      100.00      100.00      100.00      100.00    
        100.0    
  88    100.0      100.00      100.00      100.00      100.00      100.00      100.00       99.99       99.99       99.99    
        99.99       99.99       99.99       99.99       99.99       99.99       99.99       99.99       99.99       99.99    
        99.99       99.99       99.98       99.98       99.98       99.98       99.98       99.98       99.98       99.98    
        99.98       99.98       99.98       99.98       99.98       99.98       99.98       99.98       99.98       99.98    
        99.98       99.98       99.98       99.98       99.98       99.98       99.98       99.98       99.98       99.98    
        99.98       99.98       99.98       99.98       99.98       99.98       99.98       99.98       99.98       99.98    
        99.98       99.98       99.98       99.98       99.99       99.99       99.99       99.99       99.99       99.99    
        99.99       99.99       99.99       99.99       99.99       99.99       99.99       99.99       99.99       99.99    
        99.99       99.99       99.99       99.99       99.99       99.99       99.99       99.99       99.99      100.00    
       100.00      100.00      100.00      100.00      100.00      100.00      100.00      100.00      100.00      100.00    
        100.0    
  89    100.0      100.00      100.00      100.00      100.00      100.00      100.00       99.99       99.99       99.99    
        99.99       99.99       99.99       99.99       99.99       99.99       99.99       99.99       99.99       99.99    
        99.99       99.99       99.99       99.99       99.99       99.98       99.98       99.98       99.98       99.98    
        99.98       99.98       99.98       99.98       99.98       99.98       99.98       99.98       99.98       99.98    
        99.98       99.98       99.98       99.98       99.98       99.98       99.98       99.98       99.98       99.98    
        99.98       99.98       99.98       99.98       99.98       99.98       99.98       99.98       99.98       99.98    
        99.99       99.99       99.99       99.99       99.99       99.99       99.99       99.99       99.99       99.99    
        99.99       99.99       99.99       99.99       99.99       99.99       99.99       99.99       99.99       99.99    
        99.99       99.99       99.99       99.99       99.99       99.99       99.99       99.99      100.00      100.00    
       100.00      100.00      100.00      100.00      100.00      100.00      100.00      100.00      100.00      100.00    
        100.0    
  90    100.0      100.00      100.00      100.00      100.00      100.00      100.00      100.00       99.99       99.99    
        99.99       99.99       99.99       99.99       99.99       99.99       99.99       99.99       99.99       99.99    
        99.99       99.99       99.99       99.99       99.99       99.99       99.99       99.99       99.99       99.98    
        99.98       99.98       99.98       99.98       99.98       99.98       99.98       99.98       99.98       99.98    
        99.98       99.98       99.98       99.98       99.98       99.98       99.98       99.98       99.98       99.98    
        99.98       99.98       99.98       99.98       99.99       99.99       99.99       99.99       99.99       99.99    
        99.99       99.99       99.99       99.99       99.99       99.99       99.99       99.99       99.99       99.99    
        99.99       99.99       99.99       99.99       99.99       99.99       99.99       99.99       99.99       99.99    
        99.99       99.99       99.99       99.99       99.99       99.99       99.99      100.00      100.00      100.00    
       100.00      100.00      100.00      100.00      100.00      100.00      100.00      100.00      100.00      100.00    
        100.0    
  91    100.0      100.00      100.00      100.00      100.00      100.00      100.00      100.00      100.00       99.99    
        99.99       99.99       99.99       99.99       99.99       99.99       99.99       99.99       99.99       99.99    
        99.99       99.99       99.99       99.99       99.99       99.99       99.99       99.99       99.99       99.99    
        99.99       99.99       99.99       99.99       99.99       99.99       99.99       99.99       99.99       99.99    
        99.99       99.99       99.99       99.99       99.99       99.99       99.99       99.99       99.99       99.99    
        99.99       99.99       99.99       99.99       99.99       99.99       99.99       99.99       99.99       99.99    
        99.99       99.99       99.99       99.99       99.99       99.99       99.99       99.99       99.99       99.99    
        99.99       99.99       99.99       99.99       99.99       99.99       99.99       99.99       99.99       99.99    
        99.99       99.99       99.99       99.99       99.99      100.00      100.00      100.00      100.00      100.00    
       100.00      100.00      100.00      100.00      100.00      100.00      100.00      100.00      100.00      100.00    
        100.0    
  92    100.0      100.00      100.00      100.00      100.00      100.00      100.00      100.00      100.00      100.00    
        99.99       99.99       99.99       99.99       99.99       99.99       99.99       99.99       99.99       99.99    
        99.99       99.99       99.99       99.99       99.99       99.99       99.99       99.99       99.99       99.99    
        99.99       99.99       99.99       99.99       99.99       99.99       99.99       99.99       99.99       99.99    
        99.99       99.99       99.99       99.99       99.99       99.99       99.99       99.99       99.99       99.99    
        99.99       99.99       99.99       99.99       99.99       99.99       99.99       99.99       99.99       99.99    
        99.99       99.99       99.99       99.99       99.99       99.99       99.99       99.99       99.99       99.99    
        99.99       99.99       99.99       99.99       99.99       99.99       99.99       99.99       99.99       99.99    
        99.99       99.99       99.99      100.00      100.00      100.00      100.00      100.00      100.00      100.00    
       100.00      100.00      100.00      100.00      100.00      100.00      100.00      100.00      100.00      100.00    
        100.0    
  93    100.0      100.00      100.00      100.00      100.00      100.00      100.00      100.00      100.00      100.00    
       100.00       99.99       99.99       99.99       99.99       99.99       99.99       99.99       99.99       99.99    
        99.99       99.99       99.99       99.99       99.99       99.99       99.99       99.99       99.99       99.99    
        99.99       99.99       99.99       99.99       99.99       99.99       99.99       99.99       99.99       99.99    
        99.99       99.99       99.99       99.99       99.99       99.99       99.99       99.99       99.99       99.99    
        99.99       99.99       99.99       99.99       99.99       99.99       99.99       99.99       99.99       99.99    
        99.99       99.99       99.99       99.99       99.99       99.99       99.99       99.99       99.99       99.99    
        99.99       99.99       99.99       99.99       99.99       99.99       99.99       99.99       99.99       99.99    
        99.99      100.00      100.00      100.00      100.00      100.00      100.00      100.00      100.00      100.00    
       100.00      100.00      100.00      100.00      100.00      100.00      100.00      100.00      100.00      100.00    
        100.0    
  94    100.0      100.00      100.00      100.00      100.00      100.00      100.00      100.00      100.00      100.00    
       100.00      100.00      100.00       99.99       99.99       99.99       99.99       99.99       99.99       99.99    
        99.99       99.99       99.99       99.99       99.99       99.99       99.99       99.99       99.99       99.99    
        99.99       99.99       99.99       99.99       99.99       99.99       99.99       99.99       99.99       99.99    
        99.99       99.99       99.99       99.99       99.99       99.99       99.99       99.99       99.99       99.99    
        99.99       99.99       99.99       99.99       99.99       99.99       99.99       99.99       99.99       99.99    
        99.99       99.99       99.99       99.99       99.99       99.99       99.99       99.99       99.99       99.99    
        99.99       99.99       99.99       99.99       99.99       99.99       99.99       99.99      100.00      100.00    
       100.00      100.00      100.00      100.00      100.00      100.00      100.00      100.00      100.00      100.00    
       100.00      100.00      100.00      100.00      100.00      100.00      100.00      100.00      100.00      100.00    
        100.0    
  95    100.0      100.00      100.00      100.00      100.00      100.00      100.00      100.00      100.00      100.00    
       100.00      100.00      100.00      100.00      100.00       99.99       99.99       99.99       99.99       99.99    
        99.99       99.99       99.99       99.99       99.99       99.99       99.99       99.99       99.99       99.99    
        99.99       99.99       99.99       99.99       99.99       99.99       99.99       99.99       99.99       99.99    
        99.99       99.99       99.99       99.99       99.99       99.99       99.99       99.99       99.99       99.99    
        99.99       99.99       99.99       99.99       99.99       99.99       99.99       99.99       99.99       99.99    
        99.99       99.99       99.99       99.99       99.99       99.99       99.99       99.99       99.99       99.99    
        99.99       99.99       99.99       99.99       99.99      100.00      100.00      100.00      100.00      100.00    
       100.00      100.00      100.00      100.00      100.00      100.00      100.00      100.00      100.00      100.00    
       100.00      100.00      100.00      100.00      100.00      100.00      100.00      100.00      100.00      100.00    
        100.0    
  96    100.0      100.00      100.00      100.00      100.00      100.00      100.00      100.00      100.00      100.00    
       100.00      100.00      100.00      100.00      100.00      100.00      100.00      100.00      100.00       99.99    
        99.99       99.99       99.99       99.99       99.99       99.99       99.99       99.99       99.99       99.99    
        99.99       99.99       99.99       99.99       99.99       99.99       99.99       99.99       99.99       99.99    
        99.99       99.99       99.99       99.99       99.99       99.99       99.99       99.99       99.99       99.99    
        99.99       99.99       99.99       99.99       99.99       99.99       99.99       99.99       99.99       99.99    
        99.99       99.99       99.99       99.99       99.99       99.99       99.99       99.99       99.99      100.00    
       100.00      100.00      100.00      100.00      100.00      100.00      100.00      100.00      100.00      100.00    
       100.00      100.00      100.00      100.00      100.00      100.00      100.00      100.00      100.00      100.00    
       100.00      100.00      100.00      100.00      100.00      100.00      100.00      100.00      100.00      100.00    
        100.0    
  97    100.0      100.00      100.00      100.00      100.00      100.00      100.00      100.00      100.00      100.00    
       100.00      100.00      100.00      100.00      100.00      100.00      100.00      100.00      100.00      100.00    
       100.00      100.00      100.00      100.00      100.00      100.00       99.99       99.99       99.99       99.99    
        99.99       99.99       99.99       99.99       99.99       99.99       99.99       99.99       99.99       99.99    
        99.99       99.99       99.99       99.99       99.99       99.99       99.99       99.99       99.99       99.99    
        99.99       99.99       99.99       99.99       99.99       99.99       99.99       99.99       99.99      100.00    
       100.00      100.00      100.00      100.00      100.00      100.00      100.00      100.00      100.00      100.00    
       100.00      100.00      100.00      100.00      100.00      100.00      100.00      100.00      100.00      100.00    
       100.00      100.00      100.00      100.00      100.00      100.00      100.00      100.00      100.00      100.00    
       100.00      100.00      100.00      100.00      100.00      100.00      100.00      100.00      100.00      100.00    
        100.0    
  98    100.0      100.00      100.00      100.00      100.00      100.00      100.00      100.00      100.00      100.00    
       100.00      100.00      100.00      100.00      100.00      100.00      100.00      100.00      100.00      100.00    
       100.00      100.00      100.00      100.00      100.00      100.00      100.00      100.00      100.00      100.00    
       100.00      100.00      100.00      100.00      100.00      100.00      100.00      100.00      100.00      100.00    
       100.00      100.00      100.00      100.00      100.00      100.00      100.00      100.00      100.00      100.00    
       100.00      100.00      100.00      100.00      100.00      100.00      100.00      100.00      100.00      100.00    
       100.00      100.00      100.00      100.00      100.00      100.00      100.00      100.00      100.00      100.00    
       100.00      100.00      100.00      100.00      100.00      100.00      100.00      100.00      100.00      100.00    
       100.00      100.00      100.00      100.00      100.00      100.00      100.00      100.00      100.00      100.00    
       100.00      100.00      100.00      100.00      100.00      100.00      100.00      100.00      100.00      100.00    
        100.0    
  99    100.0      100.00      100.00      100.00      100.00      100.00      100.00      100.00      100.00      100.00    
       100.00      100.00      100.00      100.00      100.00      100.00      100.00      100.00      100.00      100.00    
       100.00      100.00      100.00      100.00      100.00      100.00      100.00      100.00      100.00      100.00    
       100.00      100.00      100.00      100.00      100.00      100.00      100.00      100.00      100.00      100.00    
       100.00      100.00      100.00      100.00      100.00      100.00      100.00      100.00      100.00      100.00    
       100.00      100.00      100.00      100.00      100.00      100.00      100.00      100.00      100.00      100.00    
       100.00      100.00      100.00      100.00      100.00      100.00      100.00      100.00      100.00      100.00    
       100.00      100.00      100.00      100.00      100.00      100.00      100.00      100.00      100.00      100.00    
       100.00      100.00      100.00      100.00      100.00      100.00      100.00      100.00      100.00      100.00    
       100.00      100.00      100.00      100.00      100.00      100.00      100.00      100.00      100.00      100.00    
        100.0    
 100    100.0      100.00      100.00      100.00      100.00      100.00      100.00      100.00      100.00      100.00    
       100.00      100.00      100.00      100.00      100.00      100.00      100.00      100.00      100.00      100.00    
       100.00      100.00      100.00      100.00      100.00      100.00      100.00      100.00      100.00      100.00    
       100.00      100.00      100.00      100.00      100.00      100.00      100.00      100.00      100.00      100.00    
       100.00      100.00      100.00      100.00      100.00      100.00      100.00      100.00      100.00      100.00    
       100.00      100.00      100.00      100.00      100.00      100.00      100.00      100.00      100.00      100.00    
       100.00      100.00      100.00      100.00      100.00      100.00      100.00      100.00      100.00      100.00    
       100.00      100.00      100.00      100.00      100.00      100.00      100.00      100.00      100.00      100.00    
       100.00      100.00      100.00      100.00      100.00      100.00      100.00      100.00      100.00      100.00    
       100.00      100.00      100.00      100.00      100.00      100.00      100.00      100.00      100.00       100.0    
        100.0    
 101    100.0       100.0       100.0       100.0       100.0       100.0       100.0       100.0       100.0       100.0    
        100.0       100.0       100.0       100.0       100.0       100.0       100.0       100.0       100.0       100.0    
        100.0       100.0       100.0       100.0       100.0       100.0       100.0       100.0       100.0       100.0    
        100.0       100.0       100.0       100.0       100.0       100.0       100.0       100.0       100.0       100.0    
        100.0       100.0       100.0       100.0       100.0       100.0       100.0       100.0       100.0       100.0    
        100.0       100.0       100.0       100.0       100.0       100.0       100.0       100.0       100.0       100.0    
        100.0       100.0       100.0       100.0       100.0       100.0       100.0       100.0       100.0       100.0    
        100.0       100.0       100.0       100.0       100.0       100.0       100.0       100.0       100.0       100.0    
        100.0       100.0       100.0       100.0       100.0       100.0       100.0       100.0       100.0       100.0    
        100.0       100.0       100.0       100.0       100.0       100.0       100.0       100.0       100.0       100.0    
        100.0    

 HEAD WILL BE SAVED ON UNIT 1013 AT END OF TIME STEP    1, STRESS PERIOD    1


  VOLUME BUDGET FOR ENTIRE MODEL AT END OF TIME STEP    1, STRESS PERIOD   1
  ---------------------------------------------------------------------------------------------------

     CUMULATIVE VOLUME      L**3       RATES FOR THIS TIME STEP      L**3/T          PACKAGE NAME    
     ------------------                 ------------------------                     ----------------

           IN:                                      IN:
           ---                                      ---
                 CHD =          68.4512                   CHD =          68.4512     CHD_0           

            TOTAL IN =          68.4512              TOTAL IN =          68.4512

          OUT:                                     OUT:
          ----                                     ----
                 CHD =          68.8930                   CHD =          68.8930     CHD_0           

           TOTAL OUT =          68.8930             TOTAL OUT =          68.8930

            IN - OUT =          -0.4418              IN - OUT =          -0.4418

 PERCENT DISCREPANCY =          -0.64     PERCENT DISCREPANCY =          -0.64




         TIME SUMMARY AT END OF TIME STEP    1 IN STRESS PERIOD    1
                    SECONDS     MINUTES      HOURS       DAYS        YEARS
                    -----------------------------------------------------------
   TIME STEP LENGTH  86400.      1440.0      24.000      1.0000     2.73785E-03
 STRESS PERIOD TIME  86400.      1440.0      24.000      1.0000     2.73785E-03
         TOTAL TIME  86400.      1440.0      24.000      1.0000     2.73785E-03


end timestep

