                                   MODFLOW 6
                U.S. GEOLOGICAL SURVEY MODULAR HYDROLOGIC MODEL
                          GROUNDWATER FLOW MODEL (GWF)
                            VERSION 6.2.0 10/22/2020

   MODFLOW 6 compiled Oct 22 2020 09:26:42 with IFORT compiler (ver. 19.10.2)

This software has been approved for release by the U.S. Geological 
Survey (USGS). Although the software has been subjected to rigorous 
review, the USGS reserves the right to update the software as needed 
pursuant to further analysis and review. No warranty, expressed or 
implied, is made by the USGS or the U.S. Government as to the 
functionality of the software and related material nor shall the 
fact of release constitute any such warranty. Furthermore, the 
software is released on condition that neither the USGS nor the U.S. 
Government shall be held liable for any damages resulting from its 
authorized or unauthorized use. Also refer to the USGS Water 
Resources Software User Rights Notice for complete use, copyright, 
and distribution information.


System command used to initiate simulation:
"C:/Users/Lenovo/Desktop/Diapositivas PyS/DIPLOMADO/mf6.2.0/bin/mf6"

MODFLOW was compiled using uniform precision.

Real Variables
  KIND: 8
  TINY (smallest non-zero value):    2.225074-308
  HUGE (largest value):    1.797693+308
  PRECISION: 15
  BIT SIZE: 64

Integer Variables
  KIND: 4
  HUGE (largest value): 2147483647
  BIT SIZE: 32

Long Integer Variables
  KIND: 8
  HUGE (largest value): 9223372036854775807
  BIT SIZE: 64

Logical Variables
  KIND: 4
  BIT SIZE: 32
 

 OPENED ejercicio1.dis
 FILE TYPE:DIS6                   UNIT 1005   STATUS:OLD                 
 FORMAT:FORMATTED              ACCESS:SEQUENTIAL          
 ACTION:READ                


 OPENED ejercicio1.ic
 FILE TYPE:IC6                    UNIT 1006   STATUS:OLD                 
 FORMAT:FORMATTED              ACCESS:SEQUENTIAL          
 ACTION:READ                


 OPENED ejercicio1.riv
 FILE TYPE:RIV6                   UNIT 1007   STATUS:OLD                 
 FORMAT:FORMATTED              ACCESS:SEQUENTIAL          
 ACTION:READ                


 OPENED ejercicio1.npf
 FILE TYPE:NPF6                   UNIT 1008   STATUS:OLD                 
 FORMAT:FORMATTED              ACCESS:SEQUENTIAL          
 ACTION:READ                


 OPENED ejercicio1.chd
 FILE TYPE:CHD6                   UNIT 1009   STATUS:OLD                 
 FORMAT:FORMATTED              ACCESS:SEQUENTIAL          
 ACTION:READ                


 OPENED ejercicio1.oc
 FILE TYPE:OC6                    UNIT 1010   STATUS:OLD                 
 FORMAT:FORMATTED              ACCESS:SEQUENTIAL          
 ACTION:READ                


 DIS -- STRUCTURED GRID DISCRETIZATION PACKAGE, VERSION 2 : 3/27/2014 - INPUT READ FROM UNIT 1005


 # File generated by Flopy version 3.3.2 on 02/04/2021 at 16:44:29.
 PROCESSING DISCRETIZATION OPTIONS
 END OF DISCRETIZATION OPTIONS
 MODEL LENGTH UNIT IS UNDEFINED
 PROCESSING DISCRETIZATION DIMENSIONS
    NLAY =      10
    NROW =     101
    NCOL =     101
 END OF DISCRETIZATION DIMENSIONS
 PROCESSING GRIDDATA

                     DELR =   4.000000    

                     DELC =   4.000000    

 TOP ELEVATION OF LAYER 1 =   0.000000    

   MODEL LAYER BOTTOM EL. =  -5.000000     FOR LAYER 1

   MODEL LAYER BOTTOM EL. =  -10.00000     FOR LAYER 2

   MODEL LAYER BOTTOM EL. =  -15.00000     FOR LAYER 3

   MODEL LAYER BOTTOM EL. =  -20.00000     FOR LAYER 4

   MODEL LAYER BOTTOM EL. =  -25.00000     FOR LAYER 5

   MODEL LAYER BOTTOM EL. =  -30.00000     FOR LAYER 6

   MODEL LAYER BOTTOM EL. =  -35.00000     FOR LAYER 7

   MODEL LAYER BOTTOM EL. =  -40.00000     FOR LAYER 8

   MODEL LAYER BOTTOM EL. =  -45.00000     FOR LAYER 9

   MODEL LAYER BOTTOM EL. =  -50.00000     FOR LAYER 10
 END PROCESSING GRIDDATA

 NPF -- NODE PROPERTY FLOW PACKAGE, VERSION 1, 3/30/2015 INPUT READ FROM UNIT 1008


 # File generated by Flopy version 3.3.2 on 02/04/2021 at 16:44:30.
 PROCESSING NPF OPTIONS
    CELL-BY-CELL FLOW INFORMATION WILL BE SAVED TO BINARY FILE WHENEVER ICBCFL IS NOT ZERO.
 END OF NPF OPTIONS

 RIV   -- RIV PACKAGE, VERSION 8, 2/22/2014 INPUT READ FROM UNIT 1007
 # File generated by Flopy version 3.3.2 on 02/04/2021 at 16:44:30.

 PROCESSING RIV OPTIONS
    RIV BOUNDARIES HAVE NAMES IN LAST COLUMN.
    LISTS OF RIV CELLS WILL BE PRINTED.
    RIV FLOWS WILL BE PRINTED TO LISTING FILE.
    FLOWS WILL BE SAVED TO BUDGET FILE SPECIFIED IN OUTPUT CONTROL
    TIME-SERIES DATA WILL BE READ FROM FILE: river_stages.ts
 # File generated by Flopy version 3.3.2 on 02/04/2021 at 16:44:30.

 OPENED mymodel.riv.obs
 FILE TYPE:OBS   UNIT 1013   STATUS:OLD                 
 FORMAT:FORMATTED              ACCESS:SEQUENTIAL          
 ACTION:READ                

 END OF RIV OPTIONS

 PROCESSING RIV DIMENSIONS
    MAXBOUND =      20
 END OF RIV DIMENSIONS

 CHD   -- CHD PACKAGE, VERSION 8, 2/22/2014 INPUT READ FROM UNIT 1009
 # File generated by Flopy version 3.3.2 on 02/04/2021 at 16:44:30.

 PROCESSING CHD OPTIONS
    FLOWS WILL BE SAVED TO BUDGET FILE SPECIFIED IN OUTPUT CONTROL
 END OF CHD OPTIONS

 PROCESSING CHD DIMENSIONS
    MAXBOUND =    4002
 END OF CHD DIMENSIONS

 IC -- INITIAL CONDITIONS PACKAGE, VERSION 8, 3/28/2015 INPUT READ FROM UNIT 1006
 # File generated by Flopy version 3.3.2 on 02/04/2021 at 16:44:29.
 PROCESSING GRIDDATA
 END PROCESSING GRIDDATA
 PROCESSING GRIDDATA

                ICELLTYPE = 1
 K33 not provided.  Assuming K33 = K.
 K22 not provided.  Assuming K22 = K.
 END PROCESSING GRIDDATA
    BINARY GRID INFORMATION WILL BE WRITTEN TO:
      UNIT NUMBER: 1014
      FILE NAME: C:\Users\Lenovo\Slendy\EjmploFlopy\workspace\ejercicio1.dis.grb

 OPENED C:\Users\Lenovo\Slendy\EjmploFlopy\workspace\ejercicio1.dis.grb
 FILE TYPE:DATA(BINARY)   UNIT 1014   STATUS:REPLACE             
 FORMAT:UNFORMATTED            ACCESS:STREAM              
 ACTION:READWRITE           

      THE LAST TIME STEP WILL BE PRINTED
      THE LAST TIME STEP WILL BE PRINTED
 # File generated by Flopy version 3.3.2 on 02/04/2021 at 16:44:30.

 PROCESSING OC OPTIONS

    BUDGET INFORMATION WILL BE WRITTEN TO:
      UNIT NUMBER: 1015
      FILE NAME: ejercicio1.cbb

 OPENED ejercicio1.cbb
 FILE TYPE:DATA(BINARY)   UNIT 1015   STATUS:REPLACE             
 FORMAT:UNFORMATTED            ACCESS:STREAM              
 ACTION:READWRITE           

    HEAD INFORMATION WILL BE WRITTEN TO:
      UNIT NUMBER: 1016
      FILE NAME: ejercicio1.hds

 OPENED ejercicio1.hds
 FILE TYPE:DATA(BINARY)   UNIT 1016   STATUS:REPLACE             
 FORMAT:UNFORMATTED            ACCESS:STREAM              
 ACTION:READWRITE           

 END OF OC OPTIONS

The observation utility is active for "RIV"
 # File generated by Flopy version 3.3.2 on 02/04/2021 at 16:44:30.

Processing observation options:

Text output number of digits of precision set to: 10
The PRINT_INPUT option has been specified.


 OBSERVATIONS READ FROM FILE "mymodel.riv.obs"
 ----------------------------------------------------------------------------------------------------------------------------------------------------------------------------------------------------------------------------
 NAME                                     TYPE                                       TIME         LOCATION DATA                              OUTPUT FILENAME                                                                 
 ----------------------------------------------------------------------------------------------------------------------------------------------------------------------------------------------------------------------------
 RV1-3-1                                  CONTINUOUS  RIV                            ALL TIMES    "1 3 1"                                    riv_obs.csv                                                                     
 RV1-4-2                                  CONTINUOUS  RIV                            ALL TIMES    "1 4 2"                                    riv_obs.csv                                                                     
 RV1-5-3                                  CONTINUOUS  RIV                            ALL TIMES    "1 5 3"                                    riv_obs.csv                                                                     
 RV1-5-4                                  CONTINUOUS  RIV                            ALL TIMES    "1 5 4"                                    riv_obs.csv                                                                     
 RV1-6-5                                  CONTINUOUS  RIV                            ALL TIMES    "1 6 5"                                    riv_obs.csv                                                                     
 RV1-C6                                   CONTINUOUS  RIV                            ALL TIMES    "RIV1_C6"                                  riv_obs.csv                                                                     
 RV1-C7                                   CONTINUOUS  RIV                            ALL TIMES    "RIV1_C7"                                  riv_obs.csv                                                                     
 RV2-UPPER                                CONTINUOUS  RIV                            ALL TIMES    "RIV2_UPPER"                               riv_obs.csv                                                                     
 RV-2-7-4                                 CONTINUOUS  RIV                            ALL TIMES    "1 7 4"                                    riv_obs.csv                                                                     
 RV2-8-5                                  CONTINUOUS  RIV                            ALL TIMES    "1 7 5"                                    riv_obs.csv                                                                     
 RV-2-9-6                                 CONTINUOUS  RIV                            ALL TIMES    "1 6 6"                                    riv_obs.csv                                                                     
 RIV1-3-1                                 CONTINUOUS  RIV                            ALL TIMES    "1 3 1"                                    riv_flowsA.csv                                                                  
 RIV1-4-2                                 CONTINUOUS  RIV                            ALL TIMES    "1 4 2"                                    riv_flowsA.csv                                                                  
 RIV1-5-3                                 CONTINUOUS  RIV                            ALL TIMES    "1 5 3"                                    riv_flowsA.csv                                                                  
 RIV2-10-1                                CONTINUOUS  RIV                            ALL TIMES    "1 10 1"                                   riv_flowsB.csv                                                                  
 RIV-2-9-2                                CONTINUOUS  RIV                            ALL TIMES    "1 9 2"                                    riv_flowsB.csv                                                                  
 RIV2-8-3                                 CONTINUOUS  RIV                            ALL TIMES    "1 8 3"                                    riv_flowsB.csv                                                                  
 ----------------------------------------------------------------------------------------------------------------------------------------------------------------------------------------------------------------------------



start timestep kper="1" kstp="1" mode="normal"


 BEGIN READING OUTPUT CONTROL FOR STRESS PERIOD 1
      ALL TIME STEPS WILL BE SAVED
      ALL TIME STEPS WILL BE SAVED
      THE LAST TIME STEP WILL BE PRINTED

 END READING OUTPUT CONTROL FOR STRESS PERIOD 1
 ------------------------------------------------------------------------------------------------------------------------------
  RIV NO.    LAYER    ROW     COL        STAGE         CONDUCTANCE       BOTTOM EL.    BOUNDNAME                               
 ------------------------------------------------------------------------------------------------------------------------------
     1         1       3       1     40.5000000       1001.00000       35.9000000                                              
     2         1       4       2     40.5000000       1002.00000       35.8000000                                              
     3         1       5       3     40.5000000       1003.00000       35.7000000                                              
     4         1       5       4     40.5000000       1004.00000       35.6000000                                              
     5         1       6       5     40.5000000       1005.00000       35.5000000                                              
     6         1       6       6     40.5000000       1006.00000       35.4000000      RIV1_C6                                 
     7         1       6       7     40.5000000       1007.00000       35.3000000      RIV1_C7                                 
     8         1       5       8     40.5000000       1008.00000       35.2000000                                              
     9         1       5       9     40.5000000       1009.00000       35.1000000                                              
     10        1       5      10     40.5000000       1010.00000       35.0000000                                              
     11        1      10       1     41.0000000       1001.00000       36.9000000      RIV2_UPPER                              
     12        1       9       2     41.0000000       1002.00000       36.8000000      RIV2_UPPER                              
     13        1       8       3     41.0000000       1003.00000       36.7000000      RIV2_UPPER                              
     14        1       7       4     41.0000000       1004.00000       36.6000000                                              
     15        1       7       5     41.0000000       1005.00000       36.5000000                                              
     16        1       6       6     41.0000000       1006.00000       36.4000000      RIV2_C6                                 
     17        1       6       7     41.0000000       1007.00000       36.3000000      RIV2_C7                                 
     18        1       7       8     41.0000000       1008.00000       36.2000000                                              
     19        1       7       9     41.0000000       1009.00000       36.1000000                                              
     20        1       7      10     41.0000000       1010.00000       36.0000000                                              
 ------------------------------------------------------------------------------------------------------------------------------



Time-series controlled values in stress period: 1, time step 1:
"RIV" package: Boundary 1, STAGE value from time series "RIVER_STAGE_1" =   40.500    
"RIV" package: Boundary 2, STAGE value from time series "RIVER_STAGE_1" =   40.500    
"RIV" package: Boundary 3, STAGE value from time series "RIVER_STAGE_1" =   40.500    
"RIV" package: Boundary 4, STAGE value from time series "RIVER_STAGE_1" =   40.500    
"RIV" package: Boundary 5, STAGE value from time series "RIVER_STAGE_1" =   40.500    
"RIV" package: Boundary 6, STAGE value from time series "RIVER_STAGE_1" =   40.500     (RIV1_C6)
"RIV" package: Boundary 7, STAGE value from time series "RIVER_STAGE_1" =   40.500     (RIV1_C7)
"RIV" package: Boundary 8, STAGE value from time series "RIVER_STAGE_1" =   40.500    
"RIV" package: Boundary 9, STAGE value from time series "RIVER_STAGE_1" =   40.500    
"RIV" package: Boundary 10, STAGE value from time series "RIVER_STAGE_1" =   40.500    
"RIV" package: Boundary 11, STAGE value from time series "RIVER_STAGE_2" =   41.000     (RIV2_UPPER)
"RIV" package: Boundary 12, STAGE value from time series "RIVER_STAGE_2" =   41.000     (RIV2_UPPER)
"RIV" package: Boundary 13, STAGE value from time series "RIVER_STAGE_2" =   41.000     (RIV2_UPPER)
"RIV" package: Boundary 14, STAGE value from time series "RIVER_STAGE_2" =   41.000    
"RIV" package: Boundary 15, STAGE value from time series "RIVER_STAGE_2" =   41.000    
"RIV" package: Boundary 16, STAGE value from time series "RIVER_STAGE_2" =   41.000     (RIV2_C6)
"RIV" package: Boundary 17, STAGE value from time series "RIVER_STAGE_2" =   41.000     (RIV2_C7)
"RIV" package: Boundary 18, STAGE value from time series "RIVER_STAGE_2" =   41.000    
"RIV" package: Boundary 19, STAGE value from time series "RIVER_STAGE_2" =   41.000    
"RIV" package: Boundary 20, STAGE value from time series "RIVER_STAGE_2" =   41.000    

 UBDSV1 SAVING     FLOW-JA-FACE ON UNIT   1015 AT TIME STEP      1, STRESS PERIOD      1
 UBDSV06 SAVING              RIV IN MODEL EJERCICIO1       PACKAGE EJERCICIO1      CONNECTED TO MODEL EJERCICIO1       PACKAGE RIV              ON UNIT   1015 AT TIME STEP      1, STRESS PERIOD      1
 UBDSV06 SAVING              CHD IN MODEL EJERCICIO1       PACKAGE EJERCICIO1      CONNECTED TO MODEL EJERCICIO1       PACKAGE CHD_0            ON UNIT   1015 AT TIME STEP      1, STRESS PERIOD      1
1
  HEAD IN LAYER   1 AT END OF TIME STEP   1 IN STRESS PERIOD    1
  ---------------------------------------------------------------------------

            1           2           3           4           5           6           7           8           9          10
           11          12          13          14          15          16          17          18          19          20
           21          22          23          24          25          26          27          28          29          30
           31          32          33          34          35          36          37          38          39          40
           41          42          43          44          45          46          47          48          49          50
           51          52          53          54          55          56          57          58          59          60
           61          62          63          64          65          66          67          68          69          70
           71          72          73          74          75          76          77          78          79          80
           81          82          83          84          85          86          87          88          89          90
           91          92          93          94          95          96          97          98          99         100
          101
 ........................................................................................................................
   1    100.0       100.0       100.0       100.0       100.0       100.0       100.0       100.0       100.0       100.0    
        100.0       100.0       100.0       100.0       100.0       100.0       100.0       100.0       100.0       100.0    
        100.0       100.0       100.0       100.0       100.0       100.0       100.0       100.0       100.0       100.0    
        100.0       100.0       100.0       100.0       100.0       100.0       100.0       100.0       100.0       100.0    
        100.0       100.0       100.0       100.0       100.0       100.0       100.0       100.0       100.0       100.0    
        100.0       100.0       100.0       100.0       100.0       100.0       100.0       100.0       100.0       100.0    
        100.0       100.0       100.0       100.0       100.0       100.0       100.0       100.0       100.0       100.0    
        100.0       100.0       100.0       100.0       100.0       100.0       100.0       100.0       100.0       100.0    
        100.0       100.0       100.0       100.0       100.0       100.0       100.0       100.0       100.0       100.0    
        100.0       100.0       100.0       100.0       100.0       100.0       100.0       100.0       100.0       100.0    
        100.0    
   2    100.0       92.62       90.26       89.88       90.12       90.30       90.24       90.12       90.44       91.40    
        93.02       94.69       96.07       97.11       97.87       98.40       98.78       99.06       99.25       99.40    
        99.51       99.59       99.65       99.70       99.74       99.77       99.80       99.82       99.84       99.85    
        99.87       99.88       99.89       99.90       99.91       99.91       99.92       99.92       99.93       99.93    
        99.94       99.94       99.95       99.95       99.95       99.95       99.96       99.96       99.96       99.96    
        99.97       99.97       99.97       99.97       99.97       99.97       99.97       99.98       99.98       99.98    
        99.98       99.98       99.98       99.98       99.98       99.98       99.98       99.98       99.99       99.99    
        99.99       99.99       99.99       99.99       99.99       99.99       99.99       99.99       99.99       99.99    
        99.99       99.99       99.99       99.99       99.99       99.99       99.99      100.00      100.00      100.00    
       100.00      100.00      100.00      100.00      100.00      100.00      100.00      100.00      100.00      100.00    
        100.0    
   3    100.0       78.92       77.10       77.88       79.23       79.84       79.54       78.81       79.23       81.26    
        85.34       89.21       92.19       94.34       95.84       96.89       97.63       98.16       98.54       98.82    
        99.03       99.19       99.32       99.41       99.49       99.55       99.60       99.65       99.68       99.71    
        99.74       99.76       99.78       99.80       99.81       99.83       99.84       99.85       99.86       99.87    
        99.88       99.88       99.89       99.90       99.90       99.91       99.91       99.92       99.92       99.93    
        99.93       99.93       99.94       99.94       99.94       99.95       99.95       99.95       99.95       99.96    
        99.96       99.96       99.96       99.96       99.97       99.97       99.97       99.97       99.97       99.97    
        99.97       99.97       99.98       99.98       99.98       99.98       99.98       99.98       99.98       99.98    
        99.98       99.98       99.99       99.99       99.99       99.99       99.99       99.99       99.99       99.99    
        99.99       99.99       99.99       99.99      100.00      100.00      100.00      100.00      100.00      100.00    
        100.0    
   4    100.0       41.27       57.51       62.22       66.65       68.12       67.07       63.90       63.97       66.84    
        76.35       83.64       88.56       91.84       94.04       95.55       96.60       97.35       97.89       98.29    
        98.59       98.82       99.00       99.14       99.25       99.34       99.41       99.47       99.53       99.57    
        99.61       99.64       99.67       99.70       99.72       99.74       99.76       99.77       99.79       99.80    
        99.81       99.83       99.84       99.85       99.86       99.86       99.87       99.88       99.88       99.89    
        99.90       99.90       99.91       99.91       99.92       99.92       99.92       99.93       99.93       99.93    
        99.94       99.94       99.94       99.95       99.95       99.95       99.95       99.95       99.96       99.96    
        99.96       99.96       99.96       99.97       99.97       99.97       99.97       99.97       99.97       99.97    
        99.98       99.98       99.98       99.98       99.98       99.98       99.98       99.99       99.99       99.99    
        99.99       99.99       99.99       99.99       99.99       99.99      100.00      100.00      100.00      100.00    
        100.0    
   5    100.0       66.26       40.86       40.76       52.60       55.11       52.66       40.75       40.70       40.87    
        66.72       78.85       85.67       89.88       92.62       94.47       95.75       96.67       97.33       97.83    
        98.20       98.48       98.71       98.88       99.02       99.14       99.23       99.31       99.38       99.44    
        99.49       99.53       99.57       99.60       99.63       99.66       99.68       99.70       99.72       99.74    
        99.75       99.77       99.78       99.80       99.81       99.82       99.83       99.84       99.85       99.85    
        99.86       99.87       99.88       99.88       99.89       99.89       99.90       99.90       99.91       99.91    
        99.92       99.92       99.92       99.93       99.93       99.93       99.94       99.94       99.94       99.94    
        99.95       99.95       99.95       99.95       99.96       99.96       99.96       99.96       99.96       99.97    
        99.97       99.97       99.97       99.97       99.98       99.98       99.98       99.98       99.98       99.98    
        99.98       99.99       99.99       99.99       99.99       99.99       99.99      100.00      100.00      100.00    
        100.0    
   6    100.0       75.61       56.63       47.03       40.65       40.83       40.84       44.42       46.31       50.62    
        66.07       77.16       84.21       88.72       91.69       93.71       95.13       96.14       96.88       97.44    
        97.86       98.19       98.45       98.65       98.82       98.95       99.06       99.16       99.24       99.31    
        99.37       99.42       99.46       99.51       99.54       99.57       99.60       99.63       99.65       99.68    
        99.70       99.71       99.73       99.75       99.76       99.77       99.79       99.80       99.81       99.82    
        99.83       99.84       99.85       99.85       99.86       99.87       99.87       99.88       99.89       99.89    
        99.90       99.90       99.91       99.91       99.91       99.92       99.92       99.92       99.93       99.93    
        99.93       99.94       99.94       99.94       99.95       99.95       99.95       99.95       99.96       99.96    
        99.96       99.96       99.96       99.97       99.97       99.97       99.97       99.98       99.98       99.98    
        99.98       99.98       99.98       99.99       99.99       99.99       99.99       99.99      100.00      100.00    
        100.0    
   7    100.0       75.46       55.62       41.22       41.17       49.98       50.09       41.20       41.17       41.33    
        65.46       77.22       84.05       88.39       91.29       93.30       94.73       95.77       96.55       97.14    
        97.59       97.94       98.22       98.45       98.63       98.78       98.91       99.02       99.11       99.19    
        99.26       99.32       99.37       99.41       99.46       99.49       99.53       99.56       99.59       99.61    
        99.64       99.66       99.68       99.70       99.72       99.73       99.75       99.76       99.77       99.78    
        99.80       99.81       99.82       99.83       99.83       99.84       99.85       99.86       99.86       99.87    
        99.88       99.88       99.89       99.89       99.90       99.90       99.91       99.91       99.91       99.92    
        99.92       99.93       99.93       99.93       99.94       99.94       99.94       99.94       99.95       99.95    
        99.95       99.96       99.96       99.96       99.96       99.97       99.97       99.97       99.97       99.97    
        99.98       99.98       99.98       99.98       99.99       99.99       99.99       99.99      100.00      100.00    
        100.0    
   8    100.0       66.45       41.40       53.10       57.23       60.77       61.36       59.63       60.25       63.33    
        72.63       79.99       85.17       88.79       91.35       93.20       94.55       95.56       96.33       96.92    
        97.38       97.75       98.04       98.28       98.47       98.64       98.77       98.89       98.99       99.07    
        99.15       99.22       99.28       99.33       99.38       99.42       99.46       99.49       99.53       99.56    
        99.58       99.61       99.63       99.65       99.67       99.69       99.71       99.72       99.74       99.75    
        99.76       99.78       99.79       99.80       99.81       99.82       99.83       99.83       99.84       99.85    
        99.86       99.86       99.87       99.87       99.88       99.89       99.89       99.90       99.90       99.90    
        99.91       99.91       99.92       99.92       99.92       99.93       99.93       99.94       99.94       99.94    
        99.94       99.95       99.95       99.95       99.96       99.96       99.96       99.97       99.97       99.97    
        99.97       99.98       99.98       99.98       99.98       99.99       99.99       99.99       99.99      100.00    
        100.0    
   9    100.0       41.76       57.86       64.94       68.08       69.92       70.61       70.74       71.78       74.31    
        78.85       83.26       86.86       89.64       91.75       93.34       94.56       95.49       96.21       96.78    
        97.23       97.60       97.89       98.14       98.34       98.51       98.65       98.77       98.88       98.97    
        99.05       99.13       99.19       99.25       99.30       99.35       99.39       99.43       99.47       99.50    
        99.53       99.56       99.58       99.61       99.63       99.65       99.67       99.69       99.70       99.72    
        99.73       99.75       99.76       99.77       99.78       99.79       99.80       99.81       99.82       99.83    
        99.84       99.84       99.85       99.86       99.86       99.87       99.88       99.88       99.89       99.89    
        99.90       99.90       99.91       99.91       99.91       99.92       99.92       99.93       99.93       99.93    
        99.94       99.94       99.94       99.95       99.95       99.95       99.96       99.96       99.96       99.97    
        99.97       99.97       99.98       99.98       99.98       99.99       99.99       99.99       99.99      100.00    
        100.0    
  10    100.0       77.82       75.14       75.79       76.61       77.27       77.70       78.14       79.10       80.87    
        83.44       86.17       88.62       90.68       92.33       93.65       94.70       95.52       96.18       96.71    
        97.14       97.49       97.78       98.02       98.22       98.40       98.54       98.67       98.78       98.88    
        98.96       99.04       99.11       99.17       99.23       99.28       99.33       99.37       99.41       99.44    
        99.48       99.51       99.54       99.56       99.59       99.61       99.63       99.65       99.67       99.69    
        99.70       99.72       99.73       99.74       99.76       99.77       99.78       99.79       99.80       99.81    
        99.82       99.83       99.83       99.84       99.85       99.85       99.86       99.87       99.87       99.88    
        99.88       99.89       99.89       99.90       99.90       99.91       99.91       99.92       99.92       99.93    
        99.93       99.93       99.94       99.94       99.94       99.95       99.95       99.96       99.96       99.96    
        99.97       99.97       99.97       99.98       99.98       99.98       99.99       99.99       99.99      100.00    
        100.0    
  11    100.0       89.77       85.27       83.62       83.07       82.95       83.04       83.36       84.06       85.23    
        86.81       88.55       90.22       91.72       92.99       94.05       94.92       95.64       96.22       96.70    
        97.10       97.43       97.70       97.93       98.13       98.30       98.45       98.58       98.69       98.79    
        98.88       98.96       99.03       99.10       99.16       99.22       99.27       99.31       99.35       99.39    
        99.43       99.46       99.49       99.52       99.55       99.57       99.60       99.62       99.64       99.66    
        99.67       99.69       99.70       99.72       99.73       99.74       99.76       99.77       99.78       99.79    
        99.80       99.81       99.82       99.82       99.83       99.84       99.85       99.85       99.86       99.87    
        99.87       99.88       99.88       99.89       99.89       99.90       99.90       99.91       99.91       99.92    
        99.92       99.93       99.93       99.93       99.94       99.94       99.95       99.95       99.95       99.96    
        99.96       99.97       99.97       99.97       99.98       99.98       99.99       99.99       99.99      100.00    
        100.0    
  12    100.0       94.45       90.82       88.79       87.72       87.19       87.02       87.14       87.57       88.31    
        89.32       90.46       91.61       92.69       93.65       94.48       95.20       95.80       96.31       96.73    
        97.09       97.39       97.65       97.87       98.06       98.22       98.37       98.50       98.61       98.71    
        98.80       98.89       98.96       99.03       99.10       99.15       99.21       99.26       99.30       99.34    
        99.38       99.42       99.45       99.48       99.51       99.54       99.56       99.58       99.61       99.63    
        99.64       99.66       99.68       99.69       99.71       99.72       99.73       99.75       99.76       99.77    
        99.78       99.79       99.80       99.81       99.82       99.82       99.83       99.84       99.85       99.85    
        99.86       99.87       99.87       99.88       99.88       99.89       99.89       99.90       99.90       99.91    
        99.91       99.92       99.92       99.93       99.93       99.94       99.94       99.95       99.95       99.95    
        99.96       99.96       99.97       99.97       99.98       99.98       99.98       99.99       99.99      100.00    
        100.0    
  13    100.0       96.60       93.94       92.13       90.98       90.30       89.97       89.93       90.14       90.59    
        91.23       91.98       92.77       93.55       94.27       94.92       95.49       95.99       96.42       96.79    
        97.11       97.38       97.62       97.82       98.00       98.16       98.30       98.43       98.54       98.64    
        98.74       98.82       98.90       98.97       99.04       99.10       99.15       99.21       99.25       99.30    
        99.34       99.38       99.41       99.44       99.47       99.50       99.53       99.55       99.58       99.60    
        99.62       99.64       99.65       99.67       99.69       99.70       99.71       99.73       99.74       99.75    
        99.76       99.77       99.78       99.79       99.80       99.81       99.82       99.83       99.83       99.84    
        99.85       99.85       99.86       99.87       99.87       99.88       99.89       99.89       99.90       99.90    
        99.91       99.91       99.92       99.92       99.93       99.93       99.94       99.94       99.95       99.95    
        99.96       99.96       99.96       99.97       99.97       99.98       99.98       99.99       99.99      100.00    
        100.0    
  14    100.0       97.73       95.79       94.31       93.26       92.56       92.16       92.01       92.07       92.32    
        92.71       93.20       93.75       94.30       94.84       95.34       95.79       96.20       96.56       96.87    
        97.15       97.39       97.60       97.79       97.96       98.11       98.24       98.36       98.48       98.58    
        98.67       98.76       98.84       98.91       98.98       99.05       99.10       99.16       99.21       99.25    
        99.30       99.34       99.37       99.41       99.44       99.47       99.50       99.52       99.55       99.57    
        99.59       99.61       99.63       99.65       99.66       99.68       99.69       99.71       99.72       99.73    
        99.74       99.76       99.77       99.78       99.79       99.80       99.80       99.81       99.82       99.83    
        99.84       99.84       99.85       99.86       99.86       99.87       99.88       99.88       99.89       99.89    
        99.90       99.91       99.91       99.92       99.92       99.93       99.93       99.94       99.94       99.95    
        99.95       99.96       99.96       99.97       99.97       99.98       99.98       99.99       99.99      100.00    
        100.0    
  15    100.0       98.39       96.94       95.76       94.85       94.21       93.79       93.58       93.54       93.65    
        93.87       94.19       94.56       94.95       95.35       95.73       96.08       96.41       96.70       96.97    
        97.20       97.41       97.60       97.77       97.92       98.06       98.19       98.31       98.42       98.52    
        98.61       98.70       98.78       98.86       98.93       99.00       99.06       99.11       99.17       99.21    
        99.26       99.30       99.34       99.38       99.41       99.44       99.47       99.50       99.52       99.54    
        99.57       99.59       99.61       99.63       99.64       99.66       99.67       99.69       99.70       99.72    
        99.73       99.74       99.75       99.76       99.77       99.78       99.79       99.80       99.81       99.82    
        99.83       99.83       99.84       99.85       99.85       99.86       99.87       99.87       99.88       99.89    
        99.89       99.90       99.90       99.91       99.92       99.92       99.93       99.93       99.94       99.94    
        99.95       99.95       99.96       99.96       99.97       99.97       99.98       99.98       99.99       99.99    
        100.0    
  16    100.0       98.80       97.70       96.76       95.99       95.42       95.01       94.77       94.67       94.68    
        94.80       94.99       95.23       95.51       95.79       96.08       96.35       96.61       96.85       97.07    
        97.26       97.44       97.60       97.75       97.89       98.02       98.14       98.25       98.36       98.46    
        98.56       98.65       98.73       98.81       98.88       98.95       99.02       99.07       99.13       99.18    
        99.22       99.27       99.31       99.34       99.38       99.41       99.44       99.47       99.50       99.52    
        99.54       99.57       99.59       99.60       99.62       99.64       99.66       99.67       99.69       99.70    
        99.71       99.72       99.74       99.75       99.76       99.77       99.78       99.79       99.80       99.81    
        99.81       99.82       99.83       99.84       99.84       99.85       99.86       99.87       99.87       99.88    
        99.89       99.89       99.90       99.90       99.91       99.92       99.92       99.93       99.93       99.94    
        99.94       99.95       99.96       99.96       99.97       99.97       99.98       99.98       99.99       99.99    
        100.0    
  17    100.0       99.08       98.22       97.46       96.82       96.31       95.94       95.68       95.54       95.50    
        95.54       95.65       95.80       95.99       96.19       96.40       96.60       96.80       96.99       97.17    
        97.33       97.47       97.61       97.74       97.86       97.97       98.09       98.20       98.30       98.41    
        98.50       98.60       98.68       98.76       98.84       98.91       98.98       99.04       99.09       99.14    
        99.19       99.24       99.28       99.32       99.35       99.38       99.42       99.44       99.47       99.50    
        99.52       99.54       99.57       99.59       99.60       99.62       99.64       99.65       99.67       99.68    
        99.70       99.71       99.72       99.73       99.75       99.76       99.77       99.78       99.79       99.79    
        99.80       99.81       99.82       99.83       99.84       99.84       99.85       99.86       99.86       99.87    
        99.88       99.89       99.89       99.90       99.90       99.91       99.92       99.92       99.93       99.94    
        99.94       99.95       99.95       99.96       99.96       99.97       99.98       99.98       99.99       99.99    
        100.0    
  18    100.0       99.27       98.59       97.96       97.42       96.98       96.64       96.39       96.23       96.16    
        96.14       96.19       96.28       96.39       96.53       96.68       96.83       96.98       97.12       97.26    
        97.39       97.50       97.61       97.72       97.82       97.92       98.03       98.14       98.24       98.35    
        98.45       98.55       98.64       98.72       98.80       98.87       98.94       99.00       99.06       99.11    
        99.16       99.21       99.25       99.29       99.33       99.36       99.39       99.42       99.45       99.48    
        99.50       99.52       99.55       99.57       99.59       99.60       99.62       99.64       99.65       99.67    
        99.68       99.70       99.71       99.72       99.73       99.74       99.75       99.76       99.77       99.78    
        99.79       99.80       99.81       99.82       99.83       99.83       99.84       99.85       99.86       99.86    
        99.87       99.88       99.89       99.89       99.90       99.91       99.91       99.92       99.93       99.93    
        99.94       99.94       99.95       99.96       99.96       99.97       99.98       99.98       99.99       99.99    
        100.0    
  19    100.0       99.41       98.85       98.34       97.88       97.50       97.19       96.95       96.78       96.68    
        96.64       96.64       96.68       96.74       96.83       96.93       97.04       97.14       97.25       97.35    
        97.44       97.52       97.61       97.69       97.77       97.86       97.96       98.06       98.18       98.29    
        98.39       98.50       98.59       98.68       98.76       98.84       98.91       98.97       99.03       99.09    
        99.14       99.18       99.23       99.27       99.30       99.34       99.37       99.40       99.43       99.46    
        99.48       99.51       99.53       99.55       99.57       99.59       99.61       99.62       99.64       99.65    
        99.67       99.68       99.70       99.71       99.72       99.73       99.74       99.75       99.76       99.77    
        99.78       99.79       99.80       99.81       99.82       99.83       99.83       99.84       99.85       99.86    
        99.87       99.87       99.88       99.89       99.89       99.90       99.91       99.91       99.92       99.93    
        99.93       99.94       99.95       99.95       99.96       99.97       99.97       99.98       99.99       99.99    
        100.0    
  20    100.0       99.52       99.05       98.62       98.23       97.89       97.61       97.39       97.22       97.11    
        97.04       97.01       97.01       97.04       97.09       97.15       97.22       97.29       97.36       97.42    
        97.48       97.53       97.58       97.63       97.69       97.76       97.86       97.97       98.09       98.22    
        98.34       98.45       98.55       98.64       98.73       98.81       98.88       98.95       99.01       99.06    
        99.11       99.16       99.20       99.24       99.28       99.32       99.35       99.38       99.41       99.44    
        99.46       99.49       99.51       99.53       99.55       99.57       99.59       99.61       99.62       99.64    
        99.66       99.67       99.68       99.70       99.71       99.72       99.73       99.74       99.75       99.76    
        99.77       99.78       99.79       99.80       99.81       99.82       99.83       99.83       99.84       99.85    
        99.86       99.87       99.87       99.88       99.89       99.90       99.90       99.91       99.92       99.92    
        99.93       99.94       99.95       99.95       99.96       99.97       99.97       99.98       99.99       99.99    
        100.0    
  21    100.0       99.59       99.20       98.83       98.50       98.20       97.95       97.74       97.58       97.46    
        97.37       97.32       97.30       97.30       97.32       97.35       97.39       97.43       97.46       97.49    
        97.51       97.53       97.54       97.55       97.57       97.62       97.72       97.85       97.99       98.14    
        98.27       98.40       98.51       98.61       98.70       98.78       98.86       98.92       98.98       99.04    
        99.09       99.14       99.18       99.23       99.26       99.30       99.33       99.37       99.39       99.42    
        99.45       99.47       99.50       99.52       99.54       99.56       99.58       99.59       99.61       99.63    
        99.64       99.66       99.67       99.68       99.70       99.71       99.72       99.73       99.74       99.75    
        99.76       99.77       99.78       99.79       99.80       99.81       99.82       99.83       99.84       99.84    
        99.85       99.86       99.87       99.88       99.88       99.89       99.90       99.91       99.91       99.92    
        99.93       99.94       99.94       99.95       99.96       99.96       99.97       99.98       99.99       99.99    
        100.0    
  22    100.0       99.66       99.32       99.00       98.71       98.45       98.22       98.03       97.87       97.74    
        97.65       97.59       97.55       97.53       97.52       97.53       97.54       97.55       97.55       97.55    
        97.54       97.51       97.46       97.41       97.37       97.40       97.51       97.68       97.87       98.04    
        98.20       98.35       98.47       98.58       98.67       98.76       98.83       98.90       98.97       99.02    
        99.08       99.12       99.17       99.21       99.25       99.28       99.32       99.35       99.38       99.41    
        99.43       99.46       99.48       99.50       99.53       99.55       99.56       99.58       99.60       99.62    
        99.63       99.65       99.66       99.67       99.69       99.70       99.71       99.72       99.73       99.74    
        99.75       99.76       99.77       99.78       99.79       99.80       99.81       99.82       99.83       99.84    
        99.85       99.85       99.86       99.87       99.88       99.89       99.89       99.90       99.91       99.92    
        99.92       99.93       99.94       99.95       99.95       99.96       99.97       99.98       99.98       99.99    
        100.0    
  23    100.0       99.70       99.41       99.14       98.88       98.65       98.44       98.26       98.11       97.99    
        97.89       97.82       97.76       97.72       97.70       97.68       97.67       97.66       97.64       97.60    
        97.55       97.47       97.35       97.20       97.06       97.01       97.18       97.44       97.71       97.94    
        98.14       98.30       98.44       98.55       98.65       98.74       98.82       98.89       98.95       99.01    
        99.06       99.11       99.15       99.20       99.24       99.27       99.31       99.34       99.37       99.39    
        99.42       99.45       99.47       99.49       99.51       99.53       99.55       99.57       99.59       99.60    
        99.62       99.63       99.65       99.66       99.68       99.69       99.70       99.71       99.72       99.73    
        99.75       99.76       99.77       99.78       99.79       99.79       99.80       99.81       99.82       99.83    
        99.84       99.85       99.86       99.86       99.87       99.88       99.89       99.90       99.91       99.91    
        99.92       99.93       99.94       99.95       99.95       99.96       99.97       99.98       99.98       99.99    
        100.0    
  24    100.0       99.74       99.49       99.24       99.02       98.81       98.62       98.45       98.31       98.19    
        98.09       98.01       97.95       97.90       97.86       97.83       97.80       97.76       97.72       97.66    
        97.56       97.42       97.20       96.90       96.53       96.27       96.63       97.11       97.52       97.83    
        98.07       98.26       98.41       98.54       98.64       98.73       98.81       98.88       98.94       99.00    
        99.05       99.10       99.14       99.19       99.22       99.26       99.29       99.33       99.36       99.38    
        99.41       99.43       99.46       99.48       99.50       99.52       99.54       99.56       99.58       99.59    
        99.61       99.62       99.64       99.65       99.67       99.68       99.69       99.70       99.71       99.73    
        99.74       99.75       99.76       99.77       99.78       99.79       99.80       99.81       99.82       99.82    
        99.83       99.84       99.85       99.86       99.87       99.88       99.88       99.89       99.90       99.91    
        99.92       99.93       99.93       99.94       99.95       99.96       99.97       99.98       99.98       99.99    
        100.0    
  25    100.0       99.77       99.55       99.33       99.13       98.94       98.77       98.61       98.48       98.36    
        98.26       98.18       98.11       98.05       98.00       97.96       97.91       97.87       97.80       97.72    
        97.59       97.39       97.06       96.53       95.67       94.61       95.77       96.72       97.34       97.75    
        98.03       98.24       98.40       98.53       98.63       98.73       98.80       98.87       98.94       98.99    
        99.04       99.09       99.14       99.18       99.21       99.25       99.28       99.32       99.35       99.37    
        99.40       99.42       99.45       99.47       99.49       99.51       99.53       99.55       99.57       99.58    
        99.60       99.61       99.63       99.64       99.66       99.67       99.68       99.69       99.71       99.72    
        99.73       99.74       99.75       99.76       99.77       99.78       99.79       99.80       99.81       99.82    
        99.83       99.84       99.85       99.85       99.86       99.87       99.88       99.89       99.90       99.91    
        99.91       99.92       99.93       99.94       99.95       99.96       99.97       99.97       99.98       99.99    
        100.0    
  26    100.0       99.80       99.60       99.41       99.22       99.05       98.89       98.75       98.62       98.51    
        98.41       98.33       98.25       98.19       98.13       98.08       98.03       97.97       97.89       97.79    
        97.64       97.41       97.02       96.27       94.61       90.00       94.69       96.43       97.26       97.72    
        98.03       98.24       98.40       98.53       98.64       98.73       98.80       98.87       98.93       98.99    
        99.04       99.09       99.13       99.17       99.21       99.24       99.28       99.31       99.34       99.36    
        99.39       99.42       99.44       99.46       99.48       99.50       99.52       99.54       99.56       99.57    
        99.59       99.60       99.62       99.63       99.65       99.66       99.67       99.69       99.70       99.71    
        99.72       99.73       99.74       99.75       99.76       99.77       99.78       99.79       99.80       99.81    
        99.82       99.83       99.84       99.85       99.86       99.87       99.88       99.89       99.89       99.90    
        99.91       99.92       99.93       99.94       99.95       99.96       99.96       99.97       99.98       99.99    
        100.0    
  27    100.0       99.82       99.64       99.47       99.30       99.14       99.00       98.87       98.74       98.64    
        98.54       98.46       98.38       98.31       98.25       98.19       98.14       98.07       97.99       97.89    
        97.74       97.53       97.19       96.64       95.77       94.70       95.84       96.78       97.39       97.79    
        98.07       98.27       98.43       98.55       98.65       98.74       98.81       98.88       98.94       98.99    
        99.04       99.09       99.13       99.17       99.20       99.24       99.27       99.30       99.33       99.36    
        99.38       99.41       99.43       99.45       99.47       99.49       99.51       99.53       99.55       99.56    
        99.58       99.60       99.61       99.63       99.64       99.65       99.66       99.68       99.69       99.70    
        99.71       99.72       99.73       99.75       99.76       99.77       99.78       99.79       99.80       99.81    
        99.82       99.82       99.83       99.84       99.85       99.86       99.87       99.88       99.89       99.90    
        99.91       99.92       99.93       99.94       99.95       99.95       99.96       99.97       99.98       99.99    
        100.0    
  28    100.0       99.84       99.68       99.52       99.37       99.22       99.09       98.97       98.85       98.75    
        98.65       98.57       98.50       98.43       98.36       98.30       98.24       98.17       98.10       98.00    
        97.87       97.70       97.45       97.12       96.72       96.44       96.78       97.24       97.63       97.93    
        98.15       98.32       98.46       98.58       98.67       98.75       98.82       98.89       98.94       98.99    
        99.04       99.09       99.13       99.17       99.20       99.23       99.27       99.30       99.32       99.35    
        99.38       99.40       99.42       99.45       99.47       99.49       99.51       99.52       99.54       99.56    
        99.57       99.59       99.60       99.62       99.63       99.64       99.66       99.67       99.68       99.69    
        99.70       99.72       99.73       99.74       99.75       99.76       99.77       99.78       99.79       99.80    
        99.81       99.82       99.83       99.84       99.85       99.86       99.87       99.88       99.89       99.90    
        99.91       99.91       99.92       99.93       99.94       99.95       99.96       99.97       99.98       99.99    
        100.0    
  29    100.0       99.85       99.71       99.56       99.42       99.29       99.17       99.05       98.94       98.85    
        98.76       98.67       98.60       98.53       98.47       98.41       98.34       98.28       98.21       98.12    
        98.01       97.88       97.72       97.53       97.35       97.26       97.40       97.63       97.87       98.08    
        98.25       98.39       98.51       98.61       98.70       98.77       98.84       98.90       98.95       99.00    
        99.05       99.09       99.13       99.17       99.20       99.23       99.26       99.29       99.32       99.35    
        99.37       99.40       99.42       99.44       99.46       99.48       99.50       99.52       99.53       99.55    
        99.57       99.58       99.60       99.61       99.62       99.64       99.65       99.66       99.67       99.69    
        99.70       99.71       99.72       99.73       99.74       99.75       99.76       99.77       99.78       99.79    
        99.80       99.81       99.82       99.83       99.84       99.85       99.86       99.87       99.88       99.89    
        99.90       99.91       99.92       99.93       99.94       99.95       99.96       99.97       99.98       99.99    
        100.0    
  30    100.0       99.86       99.73       99.60       99.47       99.35       99.24       99.13       99.03       98.93    
        98.85       98.77       98.69       98.63       98.56       98.50       98.44       98.38       98.31       98.24    
        98.16       98.06       97.95       97.84       97.76       97.73       97.80       97.93       98.08       98.22    
        98.35       98.47       98.57       98.65       98.73       98.80       98.86       98.91       98.96       99.01    
        99.05       99.09       99.13       99.17       99.20       99.23       99.26       99.29       99.32       99.34    
        99.37       99.39       99.41       99.43       99.45       99.47       99.49       99.51       99.53       99.54    
        99.56       99.57       99.59       99.60       99.62       99.63       99.64       99.65       99.67       99.68    
        99.69       99.70       99.71       99.72       99.74       99.75       99.76       99.77       99.78       99.79    
        99.80       99.81       99.82       99.83       99.84       99.85       99.86       99.87       99.88       99.89    
        99.90       99.91       99.92       99.93       99.94       99.95       99.96       99.97       99.98       99.99    
        100.0    
  31    100.0       99.88       99.75       99.63       99.52       99.40       99.30       99.20       99.10       99.01    
        98.93       98.85       98.78       98.72       98.65       98.59       98.54       98.48       98.42       98.36    
        98.29       98.22       98.15       98.09       98.04       98.04       98.08       98.15       98.25       98.35    
        98.45       98.54       98.62       98.70       98.77       98.83       98.88       98.93       98.98       99.02    
        99.06       99.10       99.14       99.17       99.20       99.24       99.26       99.29       99.32       99.34    
        99.37       99.39       99.41       99.43       99.45       99.47       99.49       99.50       99.52       99.54    
        99.55       99.57       99.58       99.60       99.61       99.62       99.64       99.65       99.66       99.67    
        99.68       99.69       99.71       99.72       99.73       99.74       99.75       99.76       99.77       99.78    
        99.79       99.80       99.81       99.82       99.83       99.84       99.85       99.86       99.88       99.89    
        99.90       99.91       99.92       99.93       99.94       99.95       99.96       99.97       99.98       99.99    
        100.0    
  32    100.0       99.89       99.77       99.66       99.55       99.45       99.35       99.26       99.17       99.08    
        99.00       98.93       98.86       98.80       98.74       98.68       98.63       98.57       98.52       98.47    
        98.42       98.36       98.31       98.27       98.25       98.25       98.28       98.33       98.40       98.47    
        98.54       98.61       98.68       98.74       98.80       98.86       98.91       98.95       99.00       99.04    
        99.08       99.11       99.15       99.18       99.21       99.24       99.27       99.29       99.32       99.34    
        99.36       99.39       99.41       99.43       99.45       99.46       99.48       99.50       99.52       99.53    
        99.55       99.56       99.58       99.59       99.60       99.62       99.63       99.64       99.65       99.67    
        99.68       99.69       99.70       99.71       99.72       99.73       99.74       99.75       99.77       99.78    
        99.79       99.80       99.81       99.82       99.83       99.84       99.85       99.86       99.87       99.88    
        99.89       99.90       99.91       99.92       99.94       99.95       99.96       99.97       99.98       99.99    
        100.0    
  33    100.0       99.89       99.79       99.69       99.59       99.49       99.40       99.31       99.22       99.14    
        99.07       99.00       98.93       98.87       98.82       98.76       98.71       98.66       98.62       98.57    
        98.53       98.49       98.45       98.42       98.41       98.41       98.43       98.47       98.52       98.57    
        98.63       98.68       98.74       98.79       98.84       98.89       98.93       98.98       99.02       99.05    
        99.09       99.12       99.15       99.19       99.21       99.24       99.27       99.29       99.32       99.34    
        99.36       99.38       99.40       99.42       99.44       99.46       99.48       99.49       99.51       99.53    
        99.54       99.56       99.57       99.58       99.60       99.61       99.62       99.63       99.65       99.66    
        99.67       99.68       99.69       99.70       99.72       99.73       99.74       99.75       99.76       99.77    
        99.78       99.79       99.80       99.81       99.82       99.84       99.85       99.86       99.87       99.88    
        99.89       99.90       99.91       99.92       99.93       99.94       99.96       99.97       99.98       99.99    
        100.0    
  34    100.0       99.90       99.81       99.71       99.62       99.53       99.44       99.36       99.28       99.20    
        99.13       99.07       99.00       98.94       98.89       98.84       98.79       98.75       98.70       98.66    
        98.63       98.59       98.57       98.55       98.54       98.54       98.56       98.58       98.62       98.66    
        98.70       98.75       98.79       98.84       98.88       98.92       98.96       99.00       99.04       99.07    
        99.10       99.13       99.17       99.19       99.22       99.25       99.27       99.30       99.32       99.34    
        99.36       99.38       99.40       99.42       99.44       99.46       99.47       99.49       99.51       99.52    
        99.54       99.55       99.56       99.58       99.59       99.60       99.62       99.63       99.64       99.65    
        99.66       99.68       99.69       99.70       99.71       99.72       99.73       99.74       99.75       99.76    
        99.78       99.79       99.80       99.81       99.82       99.83       99.84       99.85       99.86       99.88    
        99.89       99.90       99.91       99.92       99.93       99.94       99.95       99.97       99.98       99.99    
        100.0    
  35    100.0       99.91       99.82       99.73       99.64       99.56       99.48       99.40       99.33       99.25    
        99.19       99.12       99.07       99.01       98.96       98.91       98.86       98.82       98.78       98.75    
        98.72       98.69       98.67       98.65       98.64       98.65       98.66       98.68       98.70       98.73    
        98.77       98.80       98.84       98.88       98.92       98.95       98.99       99.02       99.06       99.09    
        99.12       99.15       99.18       99.20       99.23       99.25       99.28       99.30       99.32       99.34    
        99.36       99.38       99.40       99.42       99.44       99.46       99.47       99.49       99.50       99.52    
        99.53       99.55       99.56       99.57       99.59       99.60       99.61       99.62       99.63       99.65    
        99.66       99.67       99.68       99.69       99.70       99.71       99.73       99.74       99.75       99.76    
        99.77       99.78       99.79       99.80       99.81       99.83       99.84       99.85       99.86       99.87    
        99.88       99.89       99.91       99.92       99.93       99.94       99.95       99.96       99.98       99.99    
        100.0    
  36    100.0       99.92       99.83       99.75       99.67       99.59       99.51       99.44       99.37       99.30    
        99.24       99.18       99.12       99.07       99.02       98.97       98.93       98.89       98.86       98.82    
        98.80       98.77       98.75       98.74       98.73       98.74       98.74       98.76       98.78       98.80    
        98.83       98.86       98.89       98.92       98.95       98.99       99.02       99.05       99.08       99.11    
        99.14       99.16       99.19       99.21       99.24       99.26       99.28       99.31       99.33       99.35    
        99.37       99.39       99.40       99.42       99.44       99.45       99.47       99.48       99.50       99.51    
        99.53       99.54       99.55       99.57       99.58       99.59       99.60       99.62       99.63       99.64    
        99.65       99.66       99.67       99.69       99.70       99.71       99.72       99.73       99.74       99.75    
        99.76       99.78       99.79       99.80       99.81       99.82       99.83       99.84       99.86       99.87    
        99.88       99.89       99.90       99.92       99.93       99.94       99.95       99.96       99.98       99.99    
        100.0    
  37    100.0       99.92       99.84       99.77       99.69       99.62       99.55       99.48       99.41       99.35    
        99.29       99.23       99.18       99.13       99.08       99.04       99.00       98.96       98.93       98.90    
        98.87       98.85       98.83       98.82       98.81       98.81       98.82       98.83       98.84       98.86    
        98.88       98.91       98.94       98.96       98.99       99.02       99.05       99.07       99.10       99.13    
        99.15       99.18       99.20       99.22       99.25       99.27       99.29       99.31       99.33       99.35    
        99.37       99.39       99.40       99.42       99.44       99.45       99.47       99.48       99.50       99.51    
        99.52       99.54       99.55       99.56       99.57       99.59       99.60       99.61       99.62       99.63    
        99.65       99.66       99.67       99.68       99.69       99.70       99.71       99.72       99.74       99.75    
        99.76       99.77       99.78       99.79       99.81       99.82       99.83       99.84       99.85       99.86    
        99.88       99.89       99.90       99.91       99.93       99.94       99.95       99.96       99.98       99.99    
        100.0    
  38    100.0       99.93       99.85       99.78       99.71       99.64       99.57       99.51       99.45       99.39    
        99.33       99.28       99.23       99.18       99.13       99.09       99.05       99.02       98.99       98.96    
        98.94       98.92       98.90       98.89       98.88       98.88       98.88       98.89       98.90       98.92    
        98.94       98.96       98.98       99.00       99.02       99.05       99.07       99.10       99.12       99.15    
        99.17       99.19       99.21       99.24       99.26       99.28       99.30       99.32       99.34       99.35    
        99.37       99.39       99.41       99.42       99.44       99.45       99.47       99.48       99.49       99.51    
        99.52       99.53       99.55       99.56       99.57       99.58       99.59       99.61       99.62       99.63    
        99.64       99.65       99.66       99.67       99.68       99.70       99.71       99.72       99.73       99.74    
        99.75       99.76       99.78       99.79       99.80       99.81       99.82       99.84       99.85       99.86    
        99.87       99.89       99.90       99.91       99.92       99.94       99.95       99.96       99.97       99.99    
        100.0    
  39    100.0       99.93       99.86       99.80       99.73       99.66       99.60       99.54       99.48       99.42    
        99.37       99.32       99.27       99.23       99.18       99.14       99.11       99.08       99.05       99.02    
        99.00       98.98       98.96       98.95       98.94       98.94       98.94       98.95       98.96       98.97    
        98.98       99.00       99.02       99.04       99.06       99.08       99.10       99.12       99.14       99.17    
        99.19       99.21       99.23       99.25       99.27       99.29       99.31       99.32       99.34       99.36    
        99.38       99.39       99.41       99.42       99.44       99.45       99.47       99.48       99.49       99.50    
        99.52       99.53       99.54       99.55       99.57       99.58       99.59       99.60       99.61       99.62    
        99.63       99.64       99.66       99.67       99.68       99.69       99.70       99.71       99.72       99.74    
        99.75       99.76       99.77       99.78       99.80       99.81       99.82       99.83       99.84       99.86    
        99.87       99.88       99.90       99.91       99.92       99.93       99.95       99.96       99.97       99.99    
        100.0    
  40    100.0       99.94       99.87       99.81       99.75       99.68       99.63       99.57       99.51       99.46    
        99.41       99.36       99.31       99.27       99.23       99.19       99.16       99.13       99.10       99.07    
        99.05       99.03       99.02       99.01       99.00       99.00       99.00       99.00       99.01       99.02    
        99.03       99.04       99.06       99.07       99.09       99.11       99.13       99.15       99.17       99.19    
        99.20       99.22       99.24       99.26       99.28       99.30       99.31       99.33       99.35       99.36    
        99.38       99.39       99.41       99.42       99.44       99.45       99.46       99.48       99.49       99.50    
        99.51       99.53       99.54       99.55       99.56       99.57       99.58       99.59       99.61       99.62    
        99.63       99.64       99.65       99.66       99.67       99.68       99.70       99.71       99.72       99.73    
        99.74       99.75       99.77       99.78       99.79       99.80       99.82       99.83       99.84       99.85    
        99.87       99.88       99.89       99.91       99.92       99.93       99.95       99.96       99.97       99.99    
        100.0    
  41    100.0       99.94       99.88       99.82       99.76       99.70       99.65       99.59       99.54       99.49    
        99.44       99.40       99.35       99.31       99.27       99.24       99.21       99.18       99.15       99.12    
        99.10       99.09       99.07       99.06       99.05       99.05       99.05       99.05       99.05       99.06    
        99.07       99.08       99.09       99.11       99.12       99.14       99.15       99.17       99.19       99.20    
        99.22       99.24       99.26       99.27       99.29       99.31       99.32       99.34       99.35       99.37    
        99.38       99.40       99.41       99.43       99.44       99.45       99.46       99.48       99.49       99.50    
        99.51       99.52       99.53       99.55       99.56       99.57       99.58       99.59       99.60       99.61    
        99.62       99.63       99.64       99.65       99.67       99.68       99.69       99.70       99.71       99.72    
        99.74       99.75       99.76       99.77       99.78       99.80       99.81       99.82       99.84       99.85    
        99.86       99.88       99.89       99.90       99.92       99.93       99.94       99.96       99.97       99.99    
        100.0    
  42    100.0       99.94       99.89       99.83       99.78       99.72       99.67       99.62       99.57       99.52    
        99.47       99.43       99.39       99.35       99.31       99.28       99.25       99.22       99.19       99.17    
        99.15       99.13       99.12       99.11       99.10       99.09       99.09       99.09       99.09       99.10    
        99.11       99.12       99.13       99.14       99.15       99.16       99.18       99.19       99.21       99.22    
        99.24       99.26       99.27       99.29       99.30       99.32       99.33       99.35       99.36       99.37    
        99.39       99.40       99.41       99.43       99.44       99.45       99.46       99.48       99.49       99.50    
        99.51       99.52       99.53       99.54       99.55       99.56       99.57       99.58       99.59       99.61    
        99.62       99.63       99.64       99.65       99.66       99.67       99.68       99.69       99.71       99.72    
        99.73       99.74       99.75       99.77       99.78       99.79       99.81       99.82       99.83       99.85    
        99.86       99.87       99.89       99.90       99.91       99.93       99.94       99.96       99.97       99.99    
        100.0    
  43    100.0       99.95       99.89       99.84       99.79       99.74       99.69       99.64       99.59       99.55    
        99.50       99.46       99.42       99.39       99.35       99.32       99.29       99.26       99.24       99.21    
        99.19       99.18       99.16       99.15       99.14       99.14       99.13       99.13       99.13       99.14    
        99.14       99.15       99.16       99.17       99.18       99.19       99.20       99.22       99.23       99.24    
        99.26       99.27       99.29       99.30       99.31       99.33       99.34       99.35       99.37       99.38    
        99.39       99.41       99.42       99.43       99.44       99.45       99.46       99.47       99.49       99.50    
        99.51       99.52       99.53       99.54       99.55       99.56       99.57       99.58       99.59       99.60    
        99.61       99.62       99.63       99.64       99.65       99.66       99.68       99.69       99.70       99.71    
        99.72       99.74       99.75       99.76       99.77       99.79       99.80       99.81       99.83       99.84    
        99.86       99.87       99.88       99.90       99.91       99.93       99.94       99.96       99.97       99.99    
        100.0    
  44    100.0       99.95       99.90       99.85       99.80       99.75       99.71       99.66       99.62       99.57    
        99.53       99.49       99.45       99.42       99.39       99.35       99.33       99.30       99.28       99.25    
        99.23       99.22       99.20       99.19       99.18       99.18       99.17       99.17       99.17       99.17    
        99.18       99.18       99.19       99.20       99.21       99.22       99.23       99.24       99.25       99.26    
        99.27       99.29       99.30       99.31       99.32       99.34       99.35       99.36       99.37       99.39    
        99.40       99.41       99.42       99.43       99.44       99.45       99.46       99.47       99.48       99.49    
        99.50       99.51       99.52       99.53       99.54       99.55       99.56       99.57       99.58       99.59    
        99.60       99.61       99.62       99.64       99.65       99.66       99.67       99.68       99.69       99.70    
        99.72       99.73       99.74       99.75       99.77       99.78       99.80       99.81       99.82       99.84    
        99.85       99.87       99.88       99.90       99.91       99.92       99.94       99.95       99.97       99.98    
        100.0    
  45    100.0       99.95       99.91       99.86       99.81       99.77       99.72       99.68       99.64       99.60    
        99.56       99.52       99.48       99.45       99.42       99.39       99.36       99.34       99.31       99.29    
        99.27       99.26       99.24       99.23       99.22       99.21       99.21       99.21       99.21       99.21    
        99.21       99.21       99.22       99.22       99.23       99.24       99.25       99.26       99.27       99.28    
        99.29       99.30       99.31       99.32       99.34       99.35       99.36       99.37       99.38       99.39    
        99.40       99.41       99.42       99.43       99.44       99.45       99.46       99.47       99.48       99.49    
        99.50       99.51       99.52       99.53       99.54       99.55       99.56       99.57       99.58       99.59    
        99.60       99.61       99.62       99.63       99.64       99.65       99.66       99.67       99.68       99.70    
        99.71       99.72       99.74       99.75       99.76       99.78       99.79       99.80       99.82       99.83    
        99.85       99.86       99.88       99.89       99.91       99.92       99.94       99.95       99.97       99.98    
        100.0    
  46    100.0       99.96       99.91       99.87       99.82       99.78       99.74       99.70       99.66       99.62    
        99.58       99.54       99.51       99.48       99.45       99.42       99.39       99.37       99.35       99.33    
        99.31       99.29       99.28       99.27       99.26       99.25       99.24       99.24       99.24       99.24    
        99.24       99.24       99.25       99.25       99.26       99.26       99.27       99.28       99.29       99.30    
        99.31       99.32       99.33       99.34       99.35       99.36       99.37       99.38       99.39       99.40    
        99.41       99.42       99.43       99.44       99.45       99.46       99.46       99.47       99.48       99.49    
        99.50       99.51       99.52       99.53       99.53       99.54       99.55       99.56       99.57       99.58    
        99.59       99.60       99.61       99.62       99.63       99.64       99.65       99.67       99.68       99.69    
        99.70       99.72       99.73       99.74       99.76       99.77       99.78       99.80       99.81       99.83    
        99.84       99.86       99.87       99.89       99.90       99.92       99.94       99.95       99.97       99.98    
        100.0    
  47    100.0       99.96       99.92       99.87       99.83       99.79       99.75       99.71       99.67       99.64    
        99.60       99.57       99.54       99.51       99.48       99.45       99.42       99.40       99.38       99.36    
        99.34       99.33       99.31       99.30       99.29       99.28       99.28       99.27       99.27       99.27    
        99.27       99.27       99.27       99.28       99.28       99.29       99.29       99.30       99.31       99.32    
        99.32       99.33       99.34       99.35       99.36       99.37       99.38       99.39       99.40       99.40    
        99.41       99.42       99.43       99.44       99.45       99.46       99.46       99.47       99.48       99.49    
        99.50       99.51       99.51       99.52       99.53       99.54       99.55       99.56       99.56       99.57    
        99.58       99.59       99.60       99.61       99.62       99.63       99.65       99.66       99.67       99.68    
        99.69       99.71       99.72       99.74       99.75       99.76       99.78       99.79       99.81       99.82    
        99.84       99.85       99.87       99.89       99.90       99.92       99.93       99.95       99.97       99.98    
        100.0    
  48    100.0       99.96       99.92       99.88       99.84       99.80       99.76       99.73       99.69       99.66    
        99.62       99.59       99.56       99.53       99.50       99.48       99.45       99.43       99.41       99.39    
        99.37       99.36       99.34       99.33       99.32       99.31       99.31       99.30       99.30       99.30    
        99.29       99.30       99.30       99.30       99.30       99.31       99.31       99.32       99.33       99.33    
        99.34       99.35       99.35       99.36       99.37       99.38       99.39       99.39       99.40       99.41    
        99.42       99.43       99.43       99.44       99.45       99.46       99.47       99.47       99.48       99.49    
        99.50       99.50       99.51       99.52       99.53       99.53       99.54       99.55       99.56       99.57    
        99.58       99.59       99.60       99.61       99.62       99.63       99.64       99.65       99.66       99.67    
[...]
        99.80       99.82       99.84       99.86       99.88       99.90       99.92       99.94       99.96       99.98    
        100.0    
  88    100.0      100.00       99.99       99.99       99.98       99.98       99.97       99.97       99.96       99.96    
        99.95       99.95       99.94       99.94       99.93       99.93       99.92       99.92       99.91       99.91    
        99.91       99.90       99.90       99.89       99.89       99.89       99.88       99.88       99.87       99.87    
        99.87       99.86       99.86       99.85       99.85       99.85       99.84       99.84       99.83       99.83    
        99.82       99.82       99.81       99.81       99.80       99.80       99.79       99.79       99.78       99.78    
        99.77       99.76       99.75       99.75       99.74       99.73       99.72       99.71       99.70       99.69    
        99.69       99.67       99.66       99.65       99.64       99.63       99.62       99.62       99.61       99.60    
        99.59       99.59       99.59       99.58       99.58       99.59       99.59       99.60       99.61       99.62    
        99.63       99.65       99.66       99.68       99.70       99.72       99.73       99.75       99.77       99.79    
        99.81       99.83       99.85       99.87       99.89       99.91       99.93       99.94       99.96       99.98    
        100.0    
  89    100.0      100.00       99.99       99.99       99.98       99.98       99.97       99.97       99.96       99.96    
        99.95       99.95       99.95       99.94       99.94       99.93       99.93       99.93       99.92       99.92    
        99.91       99.91       99.91       99.90       99.90       99.89       99.89       99.89       99.88       99.88    
        99.88       99.87       99.87       99.86       99.86       99.86       99.85       99.85       99.85       99.84    
        99.84       99.83       99.83       99.82       99.82       99.81       99.81       99.80       99.80       99.79    
        99.79       99.78       99.77       99.77       99.76       99.75       99.74       99.73       99.73       99.72    
        99.71       99.70       99.69       99.68       99.67       99.66       99.65       99.65       99.64       99.63    
        99.63       99.62       99.62       99.62       99.62       99.62       99.63       99.63       99.64       99.65    
        99.66       99.68       99.69       99.71       99.72       99.74       99.75       99.77       99.79       99.81    
        99.82       99.84       99.86       99.88       99.90       99.91       99.93       99.95       99.97       99.98    
        100.0    
  90    100.0      100.00       99.99       99.99       99.98       99.98       99.98       99.97       99.97       99.96    
        99.96       99.95       99.95       99.95       99.94       99.94       99.94       99.93       99.93       99.92    
        99.92       99.92       99.91       99.91       99.91       99.90       99.90       99.90       99.89       99.89    
        99.89       99.88       99.88       99.88       99.87       99.87       99.87       99.86       99.86       99.85    
        99.85       99.85       99.84       99.84       99.83       99.83       99.82       99.82       99.81       99.81    
        99.80       99.80       99.79       99.78       99.78       99.77       99.76       99.76       99.75       99.74    
        99.73       99.72       99.72       99.71       99.70       99.69       99.68       99.68       99.67       99.67    
        99.66       99.66       99.66       99.65       99.66       99.66       99.66       99.67       99.68       99.68    
        99.69       99.71       99.72       99.73       99.75       99.76       99.78       99.79       99.81       99.82    
        99.84       99.86       99.87       99.89       99.90       99.92       99.94       99.95       99.97       99.98    
        100.0    
  91    100.0      100.00       99.99       99.99       99.98       99.98       99.98       99.97       99.97       99.97    
        99.96       99.96       99.96       99.95       99.95       99.95       99.94       99.94       99.93       99.93    
        99.93       99.92       99.92       99.92       99.92       99.91       99.91       99.91       99.90       99.90    
        99.90       99.89       99.89       99.89       99.88       99.88       99.88       99.87       99.87       99.87    
        99.86       99.86       99.86       99.85       99.85       99.84       99.84       99.83       99.83       99.82    
        99.82       99.81       99.81       99.80       99.80       99.79       99.78       99.78       99.77       99.76    
        99.76       99.75       99.74       99.73       99.73       99.72       99.71       99.71       99.70       99.70    
        99.69       99.69       99.69       99.69       99.69       99.69       99.70       99.70       99.71       99.72    
        99.72       99.73       99.75       99.76       99.77       99.78       99.80       99.81       99.82       99.84    
        99.85       99.87       99.88       99.90       99.91       99.93       99.94       99.96       99.97       99.99    
        100.0    
  92    100.0      100.00       99.99       99.99       99.99       99.98       99.98       99.98       99.97       99.97    
        99.97       99.96       99.96       99.96       99.95       99.95       99.95       99.94       99.94       99.94    
        99.94       99.93       99.93       99.93       99.92       99.92       99.92       99.92       99.91       99.91    
        99.91       99.90       99.90       99.90       99.90       99.89       99.89       99.89       99.88       99.88    
        99.88       99.87       99.87       99.87       99.86       99.86       99.85       99.85       99.85       99.84    
        99.84       99.83       99.83       99.82       99.82       99.81       99.80       99.80       99.79       99.79    
        99.78       99.77       99.77       99.76       99.75       99.75       99.74       99.74       99.73       99.73    
        99.73       99.72       99.72       99.72       99.72       99.73       99.73       99.73       99.74       99.75    
        99.75       99.76       99.77       99.78       99.79       99.81       99.82       99.83       99.84       99.86    
        99.87       99.88       99.89       99.91       99.92       99.93       99.95       99.96       99.97       99.99    
        100.0    
  93    100.0      100.00       99.99       99.99       99.99       99.99       99.98       99.98       99.98       99.97    
        99.97       99.97       99.96       99.96       99.96       99.96       99.95       99.95       99.95       99.95    
        99.94       99.94       99.94       99.93       99.93       99.93       99.93       99.92       99.92       99.92    
        99.92       99.91       99.91       99.91       99.91       99.90       99.90       99.90       99.90       99.89    
        99.89       99.89       99.88       99.88       99.88       99.87       99.87       99.87       99.86       99.86    
        99.85       99.85       99.85       99.84       99.84       99.83       99.83       99.82       99.82       99.81    
        99.80       99.80       99.79       99.79       99.78       99.78       99.77       99.77       99.76       99.76    
        99.76       99.76       99.76       99.76       99.76       99.76       99.76       99.77       99.77       99.78    
        99.78       99.79       99.80       99.81       99.82       99.83       99.84       99.85       99.86       99.87    
        99.88       99.89       99.91       99.92       99.93       99.94       99.95       99.96       99.98       99.99    
        100.0    
  94    100.0      100.00       99.99       99.99       99.99       99.99       99.98       99.98       99.98       99.98    
        99.97       99.97       99.97       99.97       99.96       99.96       99.96       99.96       99.95       99.95    
        99.95       99.95       99.95       99.94       99.94       99.94       99.94       99.93       99.93       99.93    
        99.93       99.93       99.92       99.92       99.92       99.92       99.91       99.91       99.91       99.91    
        99.90       99.90       99.90       99.90       99.89       99.89       99.89       99.88       99.88       99.88    
        99.87       99.87       99.86       99.86       99.86       99.85       99.85       99.84       99.84       99.83    
        99.83       99.82       99.82       99.81       99.81       99.81       99.80       99.80       99.79       99.79    
        99.79       99.79       99.79       99.79       99.79       99.79       99.79       99.80       99.80       99.81    
        99.81       99.82       99.83       99.83       99.84       99.85       99.86       99.87       99.88       99.89    
        99.90       99.91       99.92       99.93       99.94       99.95       99.96       99.97       99.98       99.99    
        100.0    
  95    100.0      100.00      100.00       99.99       99.99       99.99       99.99       99.98       99.98       99.98    
        99.98       99.98       99.97       99.97       99.97       99.97       99.97       99.96       99.96       99.96    
        99.96       99.96       99.95       99.95       99.95       99.95       99.95       99.94       99.94       99.94    
        99.94       99.94       99.93       99.93       99.93       99.93       99.93       99.92       99.92       99.92    
        99.92       99.91       99.91       99.91       99.91       99.90       99.90       99.90       99.90       99.89    
        99.89       99.89       99.88       99.88       99.88       99.87       99.87       99.87       99.86       99.86    
        99.85       99.85       99.85       99.84       99.84       99.83       99.83       99.83       99.82       99.82    
        99.82       99.82       99.82       99.82       99.82       99.82       99.82       99.83       99.83       99.83    
        99.84       99.84       99.85       99.86       99.86       99.87       99.88       99.89       99.90       99.90    
        99.91       99.92       99.93       99.94       99.95       99.96       99.96       99.97       99.98       99.99    
        100.0    
  96    100.0      100.00      100.00       99.99       99.99       99.99       99.99       99.99       99.99       99.98    
        99.98       99.98       99.98       99.98       99.97       99.97       99.97       99.97       99.97       99.97    
        99.96       99.96       99.96       99.96       99.96       99.96       99.95       99.95       99.95       99.95    
        99.95       99.95       99.94       99.94       99.94       99.94       99.94       99.94       99.93       99.93    
        99.93       99.93       99.93       99.92       99.92       99.92       99.92       99.92       99.91       99.91    
        99.91       99.91       99.90       99.90       99.90       99.89       99.89       99.89       99.88       99.88    
        99.88       99.87       99.87       99.87       99.86       99.86       99.86       99.86       99.85       99.85    
        99.85       99.85       99.85       99.85       99.85       99.85       99.85       99.86       99.86       99.86    
        99.87       99.87       99.88       99.88       99.89       99.89       99.90       99.91       99.91       99.92    
        99.93       99.93       99.94       99.95       99.96       99.96       99.97       99.98       99.99       99.99    
        100.0    
  97    100.0      100.00      100.00      100.00       99.99       99.99       99.99       99.99       99.99       99.99    
        99.99       99.98       99.98       99.98       99.98       99.98       99.98       99.98       99.97       99.97    
        99.97       99.97       99.97       99.97       99.97       99.96       99.96       99.96       99.96       99.96    
        99.96       99.96       99.96       99.95       99.95       99.95       99.95       99.95       99.95       99.95    
        99.94       99.94       99.94       99.94       99.94       99.94       99.93       99.93       99.93       99.93    
        99.93       99.92       99.92       99.92       99.92       99.92       99.91       99.91       99.91       99.90    
        99.90       99.90       99.90       99.89       99.89       99.89       99.89       99.89       99.88       99.88    
        99.88       99.88       99.88       99.88       99.88       99.88       99.88       99.89       99.89       99.89    
        99.89       99.90       99.90       99.91       99.91       99.91       99.92       99.93       99.93       99.94    
        99.94       99.95       99.95       99.96       99.96       99.97       99.98       99.98       99.99       99.99    
        100.0    
  98    100.0      100.00      100.00      100.00      100.00       99.99       99.99       99.99       99.99       99.99    
        99.99       99.99       99.99       99.99       99.98       99.98       99.98       99.98       99.98       99.98    
        99.98       99.98       99.98       99.98       99.97       99.97       99.97       99.97       99.97       99.97    
        99.97       99.97       99.97       99.97       99.96       99.96       99.96       99.96       99.96       99.96    
        99.96       99.96       99.96       99.95       99.95       99.95       99.95       99.95       99.95       99.95    
        99.94       99.94       99.94       99.94       99.94       99.94       99.93       99.93       99.93       99.93    
        99.93       99.92       99.92       99.92       99.92       99.92       99.92       99.91       99.91       99.91    
        99.91       99.91       99.91       99.91       99.91       99.91       99.91       99.91       99.92       99.92    
        99.92       99.92       99.93       99.93       99.93       99.94       99.94       99.94       99.95       99.95    
        99.96       99.96       99.96       99.97       99.97       99.98       99.98       99.99       99.99      100.00    
        100.0    
  99    100.0      100.00      100.00      100.00      100.00      100.00      100.00       99.99       99.99       99.99    
        99.99       99.99       99.99       99.99       99.99       99.99       99.99       99.99       99.99       99.99    
        99.99       99.99       99.98       99.98       99.98       99.98       99.98       99.98       99.98       99.98    
        99.98       99.98       99.98       99.98       99.98       99.98       99.98       99.97       99.97       99.97    
        99.97       99.97       99.97       99.97       99.97       99.97       99.97       99.97       99.97       99.96    
        99.96       99.96       99.96       99.96       99.96       99.96       99.96       99.95       99.95       99.95    
        99.95       99.95       99.95       99.95       99.95       99.94       99.94       99.94       99.94       99.94    
        99.94       99.94       99.94       99.94       99.94       99.94       99.94       99.94       99.94       99.95    
        99.95       99.95       99.95       99.95       99.96       99.96       99.96       99.96       99.97       99.97    
        99.97       99.97       99.98       99.98       99.98       99.99       99.99       99.99       99.99      100.00    
        100.0    
 100    100.0      100.00      100.00      100.00      100.00      100.00      100.00      100.00      100.00      100.00    
       100.00      100.00      100.00      100.00       99.99       99.99       99.99       99.99       99.99       99.99    
        99.99       99.99       99.99       99.99       99.99       99.99       99.99       99.99       99.99       99.99    
        99.99       99.99       99.99       99.99       99.99       99.99       99.99       99.99       99.99       99.99    
        99.99       99.99       99.99       99.98       99.98       99.98       99.98       99.98       99.98       99.98    
        99.98       99.98       99.98       99.98       99.98       99.98       99.98       99.98       99.98       99.98    
        99.98       99.97       99.97       99.97       99.97       99.97       99.97       99.97       99.97       99.97    
        99.97       99.97       99.97       99.97       99.97       99.97       99.97       99.97       99.97       99.97    
        99.97       99.97       99.98       99.98       99.98       99.98       99.98       99.98       99.98       99.98    
        99.99       99.99       99.99       99.99       99.99       99.99       99.99      100.00      100.00      100.00    
        100.0    
 101    100.0       100.0       100.0       100.0       100.0       100.0       100.0       100.0       100.0       100.0    
        100.0       100.0       100.0       100.0       100.0       100.0       100.0       100.0       100.0       100.0    
        100.0       100.0       100.0       100.0       100.0       100.0       100.0       100.0       100.0       100.0    
        100.0       100.0       100.0       100.0       100.0       100.0       100.0       100.0       100.0       100.0    
        100.0       100.0       100.0       100.0       100.0       100.0       100.0       100.0       100.0       100.0    
        100.0       100.0       100.0       100.0       100.0       100.0       100.0       100.0       100.0       100.0    
        100.0       100.0       100.0       100.0       100.0       100.0       100.0       100.0       100.0       100.0    
        100.0       100.0       100.0       100.0       100.0       100.0       100.0       100.0       100.0       100.0    
        100.0       100.0       100.0       100.0       100.0       100.0       100.0       100.0       100.0       100.0    
        100.0       100.0       100.0       100.0       100.0       100.0       100.0       100.0       100.0       100.0    
        100.0    

 HEAD WILL BE SAVED ON UNIT 1016 AT END OF TIME STEP    1, STRESS PERIOD    1


  VOLUME BUDGET FOR ENTIRE MODEL AT END OF TIME STEP    1, STRESS PERIOD   1
  ---------------------------------------------------------------------------------------------------

     CUMULATIVE VOLUME      L**3       RATES FOR THIS TIME STEP      L**3/T          PACKAGE NAME    
     ------------------                 ------------------------                     ----------------

           IN:                                      IN:
           ---                                      ---
                 RIV =         332.7876                   RIV =         332.7876     RIV             
                 CHD =        5192.9787                   CHD =        5192.9787     CHD_0           

            TOTAL IN =        5525.7663              TOTAL IN =        5525.7663

          OUT:                                     OUT:
          ----                                     ----
                 RIV =        5298.3129                   RIV =        5298.3129     RIV             
                 CHD =         229.1018                   CHD =         229.1018     CHD_0           

           TOTAL OUT =        5527.4147             TOTAL OUT =        5527.4147

            IN - OUT =          -1.6484              IN - OUT =          -1.6484

 PERCENT DISCREPANCY =          -0.03     PERCENT DISCREPANCY =          -0.03




         TIME SUMMARY AT END OF TIME STEP    1 IN STRESS PERIOD    1
                    SECONDS     MINUTES      HOURS       DAYS        YEARS
                    -----------------------------------------------------------
   TIME STEP LENGTH  86400.      1440.0      24.000      1.0000     2.73785E-03
 STRESS PERIOD TIME  86400.      1440.0      24.000      1.0000     2.73785E-03
         TOTAL TIME  86400.      1440.0      24.000      1.0000     2.73785E-03


end timestep

